[globalOptions]

# Set the pcrglobwb output directory in an absolute path.
#~ outputDir = MAIN_OUTPUT_DIR
outputDir    = /scratch/depfg/sutan101/test_thailand_30sec_onedeg/using_files/


# Set the input directory map in an absolute path. 
# - The input forcing and parameter directories and files will be relative to this.
inputDir     = /scratch/depfg/sutan101/data/pcrglobwb_input_arise/develop/


# Map of clone (must be provided in PCRaster maps)
# - Spatial resolution and coverage are based on this map:

cloneMap    = global_30sec/cloneMaps/thailand/clone_thailand_onedeg_for_testing_30sec.map

# The area/landmask of interest:
# If None, area/landmask is limited for cells with ldd value. 
#~ landmask = None
landmask    = global_30sec/cloneMaps/thailand/clone_thailand_onedeg_for_testing_30sec.map


# netcdf attributes for output files:
institution = Department of Physical Geography, Utrecht University
title       = PCR-GLOBWB 2 output (not coupled to MODFLOW), with human factors (non-natural) - MAIN_OUTPUT_DIR
description = by Edwin H. Sutanudjaja (contact: e.h.sutanudjaja@uu.nl), PCR-GLOBWB run with human factors (non-natural) at 30 arcsec resolution - MAIN_OUTPUT_DIR


#~ startTime = STARTING_DATE
#~ endTime   = END_DATE
#~ # Format: YYYY-MM-DD ; The model runs on daily time step.


startTime = 1978-01-01
endTime   = 2019-12-31
# Format: YYYY-MM-DD ; The model runs on daily time step.


# spinning up options:
#~ maxSpinUpsInYears = 5
maxSpinUpsInYears    = 20
minConvForSoilSto    = 0.0
minConvForGwatSto    = 0.0
minConvForChanSto    = 0.0
minConvForTotlSto    = 0.0


# option/directory for saving the spin-up directory 
spinUpOutputDir = True



[meteoOptions]


# Set the forcing temperature and precipitation files
precipitationNC    = /scratch/depfg/sutan101/data/isimip_forcing/isimip3a_version_2021-09-XX/copied_on_2021-09-XX/GSWP3-W5E5/merged/w5e5_1979-2019_with_climatology_on_1978/gswp3-w5e5_obsclim_pr_global_daily_1979-2019_version_2021-09-XX_with_climatology_on_1978.nc
temperatureNC      = /scratch/depfg/sutan101/data/isimip_forcing/isimip3a_version_2021-09-XX/copied_on_2021-09-XX/GSWP3-W5E5/merged/w5e5_1979-2019_with_climatology_on_1978/gswp3-w5e5_obsclim_tas_global_daily_1979-2019_version_2021-09-XX_with_climatology_on_1978.nc


# conversion constants and factors to correct forcing values (optional) so that the units are in m.day-1 and degree Celcius                                                                                                           
precipitationConstant    = 0.0
precipitationFactor      = 86.4
temperatureConstant      = -273.15
temperatureFactor        = 1.0


# Method to calculate referencePotETP (reference potential evaporation+transpiration)
referenceETPotMethod = Penman-Monteith
refETPotFileNC       = None


# meteo variables for calculating reference potential evaporation based on Penman-Monteith (optional)
#
# - 10 m wind speed, unit: m.s-1
wind_speed_10m              = /scratch/depfg/sutan101/data/isimip_forcing/isimip3a_version_2021-09-XX/copied_on_2021-09-XX/GSWP3-W5E5/merged/w5e5_1979-2019_with_climatology_on_1978/gswp3-w5e5_obsclim_sfcwind_global_daily_1979-2019_version_2021-09-XX_with_climatology_on_1978.nc
#~ # - if wind_speed_10m is None, it will be estimated from u and v components
#~ wind_speed_10m_u_comp    = None
#~ wind_speed_10m_v_comp    = None
#
# - atmospheric pressure, unit: Pascal
atmospheric_pressure        = /scratch/depfg/sutan101/data/isimip_forcing/isimip3a_version_2021-09-XX/copied_on_2021-09-XX/GSWP3-W5E5/merged/w5e5_1979-2019_with_climatology_on_1978/gswp3-w5e5_obsclim_ps_global_daily_1979-2019_version_2021-09-XX_with_climatology_on_1978.nc
#
# - shortwave (solar) radiation, unit: J.m-2.day-1 (default) or W.m-2
shortwave_radiation_input_in_w_per_m2 = True 
shortwave_radiation  = /scratch/depfg/sutan101/data/isimip_forcing/isimip3a_version_2021-09-XX/copied_on_2021-09-XX/GSWP3-W5E5/merged/w5e5_1979-2019_with_climatology_on_1978/gswp3-w5e5_obsclim_rsds_global_daily_1979-2019_version_2021-09-XX_with_climatology_on_1978.nc
#
# - relative humidity, unit: 1 
relative_humidity    = /scratch/depfg/sutan101/data/isimip_forcing/isimip3a_version_2021-09-XX/copied_on_2021-09-XX/GSWP3-W5E5/merged/w5e5_1979-2019_with_climatology_on_1978/gswp3-w5e5_obsclim_hurs_global_daily_1979-2019_version_2021-09-XX_with_climatology_on_1978.nc
#
# - conversion constant for the relative_humidity so that the values ranging from 0 to 1
consta_for_relative_humidity = 0.0                                                                                                      
factor_for_relative_humidity = 0.01 


# initial conditions:
avgAnnualDiurnalDeltaTempIni = thailand_30sec/initialConditions/chaophraya_30sec_version_20230310/avgAnnualDiurnalDeltaTemp_1978-12-31.map
avgAnnualPrecipitationIni    = thailand_30sec/initialConditions/chaophraya_30sec_version_20230310/avgAnnualPrecipitation_1978-12-31.map
avgAnnualTemperatureIni      = thailand_30sec/initialConditions/chaophraya_30sec_version_20230310/avgAnnualTemperature_1978-12-31.map



[meteoDownscalingOptions]
                                                                                                                                        
downscalePrecipitation  = False                                                                                                                                   
downscaleTemperature    = True                                                                                                                                  
downscaleReferenceETPot = False                                                                                                                                   
   
# downscaling (based on the digital elevation model):                                                                                                            
highResolutionDEM = global_30sec/landSurface/topography/merit_dem_processed/version_2021-02-XX/maps_covered_with_zero/dem_average_topography_parameters_30sec_february_2021_global_covered_with_zero.nc

# The downscaling will be performed by providing the "cellIds" (meteoDownscaleIds) of lower resolution cells.                                                    
meteoDownscaleIds = global_30sec/meteo/unique_ids/unique_ids_150_arcsec_correct_lats.nc

# lapse rates:                                                                                                                                                   
temperLapseRateNC = global_05min_from_gmd_paper_input/meteo/downscaling_from_30min/temperature_slope.nc                                                                     
precipLapseRateNC = global_05min_from_gmd_paper_input/meteo/downscaling_from_30min/precipitation_slope.nc                                                                   
                                                                                                                                                                 
# downscaling criteria (TODO: remove these):                                                                                                                     
temperatCorrelNC  = global_05min_from_gmd_paper_input/meteo/downscaling_from_30min/temperature_correl.nc                                                                     
precipitCorrelNC  = global_05min_from_gmd_paper_input/meteo/downscaling_from_30min/precipitation_correl.nc                                                                   
	                                                                                                                                                                 
# windows length (unit: arc-degree) for smoothing/averaging forcing data (not recommended):                                                                      
smoothingWindowsLength = 0


[landSurfaceOptions]

debugWaterBalance = True

numberOfUpperSoilLayers = 2

# topography parameters
# - they are used for all land cover types, unless they are are defined in certain land cover type options 
#   (e.g. different/various soil types for agriculture areas)  
topographyNC = global_30sec/landSurface/topography/merit_dem_processed/version_2021-02-XX/maps_covered_with_zero/topography_parameters_30sec_february_2021_global_covered_with_zero.nc


soilPropertiesNC = None
# - if soilPropertiesNC = None, the following soil parameters will be used
firstStorDepth       = 0.3
secondStorDepth      = 1.2
soilWaterStorageCap1 = thailand_30sec/landSurface/soil/soilgrids_30sec_v202303XX_sea_india/WHC_average_1_south_east_asian_and_india_etc_30sec.nc
soilWaterStorageCap2 = thailand_30sec/landSurface/soil/soilgrids_30sec_v202303XX_sea_india/WHC_average_2_south_east_asian_and_india_etc_30sec.nc
airEntryValue1       = thailand_30sec/landSurface/soil/soilgrids_30sec_v202303XX_sea_india/psiAir_average_1_south_east_asian_and_india_etc_30sec.nc
airEntryValue2       = thailand_30sec/landSurface/soil/soilgrids_30sec_v202303XX_sea_india/psiAir_average_2_south_east_asian_and_india_etc_30sec.nc
poreSizeBeta1        = thailand_30sec/landSurface/soil/soilgrids_30sec_v202303XX_sea_india/BCH_average_1_south_east_asian_and_india_etc_30sec.nc
poreSizeBeta2        = thailand_30sec/landSurface/soil/soilgrids_30sec_v202303XX_sea_india/BCH_average_2_south_east_asian_and_india_etc_30sec.nc
resVolWC1            = 0.0
resVolWC2            = 0.0
satVolWC1            = thailand_30sec/landSurface/soil/soilgrids_30sec_v202303XX_sea_india/vmcSat_average_1_south_east_asian_and_india_etc_30sec.nc
satVolWC2            = thailand_30sec/landSurface/soil/soilgrids_30sec_v202303XX_sea_india/vmcSat_average_2_south_east_asian_and_india_etc_30sec.nc
KSat1                = thailand_30sec/landSurface/soil/soilgrids_30sec_v202303XX_sea_india/kSat_average_1_south_east_asian_and_india_etc_30sec.nc
KSat2                = thailand_30sec/landSurface/soil/soilgrids_30sec_v202303XX_sea_india/kSat_average_2_south_east_asian_and_india_etc_30sec.nc


percolationImp       = global_30sec/landSurface/soil/impeded_drainage/global_30sec_impeded_drainage_permafrost_dsmw_correct_lats.nc

includeIrrigation = True


# land cover classes
landCoverTypes = naturalVegetationAndRainFedCrops,irrPaddy,irrNonPaddy

# we have to correct land cover fractions
noLandCoverFractionCorrection = False


# a pcraster map/value defining irrigation efficiency (dimensionless) - optional
irrigationEfficiency = global_30min_from_gmd_paper_input/waterUse/irrigation/irrigation_efficiency/efficiency.nc


includeDomesticWaterDemand  = True
includeIndustryWaterDemand  = True
includeLivestockWaterDemand = True


# domestic, industrial and livestock water demand data (unit must be in m.day-1)
domesticWaterDemandFile  = global_05min_from_gmd_paper_input/waterUse/waterDemand/domestic/domestic_water_demand_version_april_2015.nc
industryWaterDemandFile  = global_05min_from_gmd_paper_input/waterUse/waterDemand/industry/industry_water_demand_version_april_2015.nc
livestockWaterDemandFile = global_05min_from_gmd_paper_input/waterUse/waterDemand/livestock/livestock_water_demand_version_april_2015.nc


# desalination water supply (maximum/potential/capacity)
desalinationWater = global_05min_from_gmd_paper_input/waterUse/desalination/desalination_water_version_april_2015.nc


# zone IDs (scale) at which allocations of groundwater and surface water (as well as desalinated water) are performed  
allocationSegmentsForGroundSurfaceWater = global_05min_from_gmd_paper_input/waterUse/abstraction_zones/abstraction_zones_60min_05min.nc

# pcraster maps defining the partitioning of groundwater - surface water source 
#
# - predefined surface water - groundwater partitioning for irrigation demand (e.g. based on Siebert, Global Map of Irrigation Areas version 5)
irrigationSurfaceWaterAbstractionFractionData           = global_05min_from_gmd_paper_input/waterUse/source_partitioning/surface_water_fraction_for_irrigation/AEI_SWFRAC.nc
# -- quality map
irrigationSurfaceWaterAbstractionFractionDataQuality    = global_05min_from_gmd_paper_input/waterUse/source_partitioning/surface_water_fraction_for_irrigation/AEI_QUAL.nc
#
# - threshold values defining the preference for surface water source for irrigation purpose
# -- treshold to maximize surface water irrigation use (cells with irrSurfaceWaterAbstractionFraction above this will prioritize irrigation surface water use)
treshold_to_maximize_irrigation_surface_water           = 0.50
# -- treshold to minimize fossil water withdrawal for irrigation (cells with irrSurfaceWaterAbstractionFraction below this have no fossil withdrawal for irrigation)
treshold_to_minimize_fossil_groundwater_irrigation      = 0.70
#
# - predefined surface water - groundwater partitioning for non irrigation demand (e.g. based on McDonald, 2014)
maximumNonIrrigationSurfaceWaterAbstractionFractionData = global_30min_from_gmd_paper_input/waterUse/source_partitioning/surface_water_fraction_for_non_irrigation/max_city_sw_fraction.nc


# option to skip extrapolation
noParameterExtrapolation = True


[naturalVegetationAndRainFedCropsOptions]

name = naturalVegetationAndRainFedCrops
debugWaterBalance = True

# snow module properties
snowModuleType      =  Simple
freezingT           =  0.0
degreeDayFactor     =  0.0055
snowWaterHoldingCap =  0.1
refreezingCoeff     =  0.05

# other paramater values
minTopWaterLayer  = 0.0
minCropKC         = 0.2

cropCoefficientNC = global_30sec/landSurface/landCover/naturalVegetationAndRainFedCrops_version_2021-02-XX/composite-short-n-tall_crop_coefficient.nc
interceptCapNC    = global_30sec/landSurface/landCover/naturalVegetationAndRainFedCrops_version_2020-12-XX/composite-short-n-tall_intercept_capacity.nc
coverFractionNC   = global_30sec/landSurface/landCover/naturalVegetationAndRainFedCrops_version_2020-12-XX/composite-short-n-tall_cover_fraction.nc

landCoverMapsNC   = None
# If NC file is not provided, we have to provide the following pcraster maps:
fracVegCover      = 1.0
minSoilDepthFrac  = 0.99
maxSoilDepthFrac  = 1.01
rootFraction1     = global_30sec/landSurface/landCover/naturalVegetationAndRainFedCrops_version_2020-12-XX/rfrac1_all.nc
rootFraction2     = global_30sec/landSurface/landCover/naturalVegetationAndRainFedCrops_version_2020-12-XX/rfrac2_all.nc	
maxRootDepth      = global_30sec/landSurface/landCover/naturalVegetationAndRainFedCrops_version_2020-12-XX/meanrootdepth_all.nc
# Note: The maxRootDepth is not used for non irrigated land cover types. 	
#
# Parameters for the Arno's scheme:
arnoBeta = None
# If arnoBeta is defined, the soil water capacity distribution is based on this.
# If arnoBeta is NOT defined, maxSoilDepthFrac must be defined such that arnoBeta will be calculated based on maxSoilDepthFrac and minSoilDepthFrac.


# initial conditions:
interceptStorIni = initialConditions/chaophraya_30sec_version_20230310/interceptStor_naturalVegetationAndRainFedCrops_1978-12-31.map
snowCoverSWEIni  = initialConditions/chaophraya_30sec_version_20230310/snowCoverSWE_naturalVegetationAndRainFedCrops_1978-12-31.map
snowFreeWaterIni = initialConditions/chaophraya_30sec_version_20230310/snowFreeWater_naturalVegetationAndRainFedCrops_1978-12-31.map
topWaterLayerIni = initialConditions/chaophraya_30sec_version_20230310/topWaterLayer_naturalVegetationAndRainFedCrops_1978-12-31.map
storUppIni       = initialConditions/chaophraya_30sec_version_20230310/storUpp_naturalVegetationAndRainFedCrops_1978-12-31.map
storLowIni       = initialConditions/chaophraya_30sec_version_20230310/storLow_naturalVegetationAndRainFedCrops_1978-12-31.map
interflowIni     = initialConditions/chaophraya_30sec_version_20230310/interflow_naturalVegetationAndRainFedCrops_1978-12-31.map

noParameterExtrapolation = True


[irrPaddyOptions]

name = irrPaddy
debugWaterBalance = True

# snow module properties
snowModuleType      =  Simple
freezingT           =  0.0
degreeDayFactor     =  0.0055
snowWaterHoldingCap =  0.1
refreezingCoeff     =  0.05
#
landCoverMapsNC  = None
# If NC file is not provided, we have to provide the following values:
#
fracVegCover     = global_30sec/landSurface/landCover/irrigated_fractions/global_estimate_irrigation_paddy_fraction_30sec.nc
minSoilDepthFrac = 0.99
maxSoilDepthFrac = 1.01
rootFraction1    = global_30min_from_gmd_paper_input/landSurface/landCover/irrPaddy/rfrac1_paddy.nc
rootFraction2    = global_30min_from_gmd_paper_input/landSurface/landCover/irrPaddy/rfrac2_paddy.nc
maxRootDepth     = 0.5
#
# Parameters for the Arno's scheme:
arnoBeta = None
# If arnoBeta is defined, the soil water capacity distribution is based on this.
# If arnoBeta is NOT defined, maxSoilDepthFrac must be defined such that arnoBeta will be calculated based on maxSoilDepthFrac and minSoilDepthFrac.
#
# other paramater values
minTopWaterLayer = 0.05
minCropKC        = 0.2
cropDeplFactor   = 0.2
minInterceptCap  = 0.0002

cropCoefficientNC = global_30min_from_gmd_paper_input/landSurface/landCover/irrPaddy/Global_CropCoefficientKc-IrrPaddy_30min.nc


# initial conditions:
interceptStorIni = initialConditions/chaophraya_30sec_version_20230310/interceptStor_irrPaddy_1978-12-31.map
snowCoverSWEIni  = initialConditions/chaophraya_30sec_version_20230310/snowCoverSWE_irrPaddy_1978-12-31.map
snowFreeWaterIni = initialConditions/chaophraya_30sec_version_20230310/snowFreeWater_irrPaddy_1978-12-31.map
topWaterLayerIni = initialConditions/chaophraya_30sec_version_20230310/topWaterLayer_irrPaddy_1978-12-31.map
storUppIni       = initialConditions/chaophraya_30sec_version_20230310/storUpp_irrPaddy_1978-12-31.map
storLowIni       = initialConditions/chaophraya_30sec_version_20230310/storLow_irrPaddy_1978-12-31.map
interflowIni     = initialConditions/chaophraya_30sec_version_20230310/interflow_irrPaddy_1978-12-31.map

noParameterExtrapolation = True


[irrNonPaddyOptions]

name = irrNonPaddy
debugWaterBalance = True

# snow module properties
snowModuleType      =  Simple
freezingT           =  0.0
degreeDayFactor     =  0.0055
snowWaterHoldingCap =  0.1
refreezingCoeff     =  0.05
#
landCoverMapsNC  = None
# If NC file is not provided, we have to provide the following values:
fracVegCover     = global_30sec/landSurface/landCover/irrigated_fractions/global_estimate_irrigation_non_paddy_fraction_30sec.nc
minSoilDepthFrac = 0.99
maxSoilDepthFrac = 1.01
rootFraction1    = global_30min_from_gmd_paper_input/landSurface/landCover/irrNonPaddy/rfrac1_nonpaddy.nc
rootFraction2    = global_30min_from_gmd_paper_input/landSurface/landCover/irrNonPaddy/rfrac2_nonpaddy.nc
maxRootDepth     = 1.0
#
# Parameters for the Arno's scheme:
arnoBeta = None
# If arnoBeta is defined, the soil water capacity distribution is based on this.
# If arnoBeta is NOT defined, maxSoilDepthFrac must be defined such that arnoBeta will be calculated based on maxSoilDepthFrac and minSoilDepthFrac.
#
# other paramater values
minTopWaterLayer = 0.0
minCropKC        = 0.2
cropDeplFactor   = 0.5
minInterceptCap  = 0.0002

cropCoefficientNC = global_30min_from_gmd_paper_input/landSurface/landCover/irrNonPaddy/Global_CropCoefficientKc-IrrNonPaddy_30min.nc

# initial conditions:

interceptStorIni = initialConditions/chaophraya_30sec_version_20230310/interceptStor_irrNonPaddy_1978-12-31.map
snowCoverSWEIni  = initialConditions/chaophraya_30sec_version_20230310/snowCoverSWE_irrNonPaddy_1978-12-31.map
snowFreeWaterIni = initialConditions/chaophraya_30sec_version_20230310/snowFreeWater_irrNonPaddy_1978-12-31.map
topWaterLayerIni = initialConditions/chaophraya_30sec_version_20230310/topWaterLayer_irrNonPaddy_1978-12-31.map
storUppIni       = initialConditions/chaophraya_30sec_version_20230310/storUpp_irrNonPaddy_1978-12-31.map
storLowIni       = initialConditions/chaophraya_30sec_version_20230310/storLow_irrNonPaddy_1978-12-31.map
interflowIni     = initialConditions/chaophraya_30sec_version_20230310/interflow_irrNonPaddy_1978-12-31.map

noParameterExtrapolation = True


[groundwaterOptions]

debugWaterBalance = True

#~ groundwaterPropertiesNC = global_05min/groundwater/properties/groundwaterProperties5ArcMin.nc
groundwaterPropertiesNC    = None
#
recessionCoeff = global_30sec/groundwater/properties/version_202102XX/recession_coefficient_30sec.nc
kSatAquifer    = global_30sec/groundwater/properties/version_202102XX/k_conductivity_aquifer_filled_30sec.nc
specificYield  = global_30sec/groundwater/properties/version_202102XX/specific_yield_aquifer_filled_30sec.nc
#
# minimum value for groundwater recession coefficient (day-1) 
# - about 11 years
minRecessionCoeff = 0.00025
#~ # - about 27 years
#~ minRecessionCoeff = 1.0e-4



# some options for constraining groundwater abstraction
limitFossilGroundWaterAbstraction      = True
estimateOfRenewableGroundwaterCapacity = 0.0
estimateOfTotalGroundwaterThickness    = global_30sec/groundwater/aquifer_thickness_estimate/version_2020-09-XX/thickness_05min_remapbil_to_30sec_filled_with_pcr_correct_lat.nc
# minimum and maximum total groundwater thickness 
minimumTotalGroundwaterThickness       = 100.
maximumTotalGroundwaterThickness       = None


doNotExtrapolateThickness = True
noParameterExtrapolation  = True

# annual pumping capacity for each region (unit: billion cubic meter per year), should be given in a netcdf file
pumpingCapacityNC    = global_30min_from_gmd_paper_input/waterUse/groundwater_pumping_capacity/regional_abstraction_limit.nc

# zonal IDs (scale) at which zonal allocation of groundwater is performed  
allocationSegmentsForGroundwater    = global_05min_from_gmd_paper_input/waterUse/abstraction_zones/abstraction_zones_30min_05min.nc
#~ allocationSegmentsForGroundwater = False




# initial conditions:
storGroundwaterIni                           = initialConditions/chaophraya_30sec_version_20230310/storGroundwater_1978-12-31.map
#~ storGroundwaterIni                        = ESTIMATE_FROM_GROUNDWATER_RECHARGE_RATE

storGroundwaterFossilIni                     = initialConditions/chaophraya_30sec_version_20230310/storGroundwaterFossil_1978-12-31.map
#~ storGroundwaterFossilIni                  = Maximum

avgNonFossilGroundwaterAllocationLongIni     = initialConditions/chaophraya_30sec_version_20230310/avgNonFossilGroundwaterAllocationLong_1978-12-31.map
avgNonFossilGroundwaterAllocationShortIni    = initialConditions/chaophraya_30sec_version_20230310/avgNonFossilGroundwaterAllocationShort_1978-12-31.map
avgTotalGroundwaterAbstractionIni            = initialConditions/chaophraya_30sec_version_20230310/avgTotalGroundwaterAbstraction_1978-12-31.map
avgTotalGroundwaterAllocationLongIni         = initialConditions/chaophraya_30sec_version_20230310/avgTotalGroundwaterAllocationLong_1978-12-31.map
avgTotalGroundwaterAllocationShortIni        = initialConditions/chaophraya_30sec_version_20230310/avgTotalGroundwaterAllocationShort_1978-12-31.map
relativeGroundwaterHeadIni                   = initialConditions/chaophraya_30sec_version_20230310/relativeGroundwaterHead_1978-12-31.map
baseflowIni                                  = initialConditions/chaophraya_30sec_version_20230310/baseflow_1978-12-31.map

# we need avgStorGroundwater for a non linear groundwater reservoir
avgStorGroundwaterIni                        = initialConditions/chaophraya_30sec_version_20230310/avgStorGroundwater_1978-12-31.map


# option to start with the maximum value for storGroundwaterFossilIni (this will set/lead to storGroundwaterFossilIni = Maximum ; overwrite/overrule existing storGroundwaterFossilIni)
#~ useMaximumStorGroundwaterFossilIni        = True
#~ useMaximumStorGroundwaterFossilIni        = False
#~ useMaximumStorGroundwaterFossilIni        = USE_MAXIMUM_STOR_GROUNDWATER_FOSSIL_INI


# option to start with the value of storGroundwaterIni estimated from groundwater recharge (this will set/lead to storGroundwaterIni = ESTIMATE_FROM_GROUNDWATER_RECHARGE_RATE)
#~ estimateStorGroundwaterIniFromRecharge    = True
#~ estimateStorGroundwaterIniFromRecharge    = False
estimateStorGroundwaterIniFromRecharge       = ESTIMATE_STOR_GROUNDWATER_INI_FROM_RECHARGE
dailyGroundwaterRechargeIni                  = DAILY_GROUNDWATER_RECHARGE_INI


[routingOptions]

debugWaterBalance = True

# drainage direction map
lddMap      = global_30sec/routing/surface_water_bodies/version_2020-05-XX/lddsound_30sec_version_202005XX_correct_lat.nc

# cell area (unit: m2)
cellAreaMap = global_30sec/routing/cell_area/cdo_grid_area_30sec_map_correct_lat.nc

# routing method:
routingMethod    = accuTravelTime
#~ routingMethod = kinematicWave

# manning coefficient
manningsN   = 0.04

# Option for flood plain simulation
dynamicFloodPlain = True

# manning coefficient for floodplain
floodplainManningsN = 0.07


#~ pcrglobwb_python3) sutan101@gpu038.cluster:/scratch/depfg/sutan101/data/pcrglobwb_input_arise/develop/global_30sec/routing/channel_properties/version_2021-02-XX/maps_covered_with_zero$ ls -lah *.nc
#~ -rw-r--r-- 1 sutan101 depfg 25G Mar  1 15:52 channel_parameters_30sec_february_2021_global_covered_with_zero.nc

# channel gradient
gradient             = global_30sec/routing/channel_properties/version_2021-02-XX/maps_covered_with_zero/channel_gradient_channel_parameters_30sec_february_2021_global_covered_with_zero.nc

# constant channel depth 
constantChannelDepth = global_30sec/routing/channel_properties/version_2021-02-XX/maps_covered_with_zero/bankfull_depth_channel_parameters_30sec_february_2021_global_covered_with_zero.nc

# constant channel width (optional)
constantChannelWidth = global_30sec/routing/channel_properties/version_2021-02-XX/maps_covered_with_zero/bankfull_width_channel_parameters_30sec_february_2021_global_covered_with_zero.nc

# minimum channel width (optional)
minimumChannelWidth  = global_30sec/routing/channel_properties/version_2021-02-XX/maps_covered_with_zero/bankfull_width_channel_parameters_30sec_february_2021_global_covered_with_zero.nc

# channel properties for flooding
bankfullCapacity     = None
# - If None, it will be estimated from (bankfull) channel depth (m) and width (m) 

# files for relative elevation (above minimum dem) 
relativeElevationFiles  = global_30sec/landSurface/topography/merit_dem_processed/version_2021-02-XX/maps_covered_with_zero/dzRel%04d_topography_parameters_30sec_february_2021_global_covered_with_zero.nc
relativeElevationLevels = 0.0, 0.01, 0.05, 0.10, 0.20, 0.30, 0.40, 0.50, 0.60, 0.70, 0.80, 0.90, 1.00


# composite crop factors for WaterBodies: 
cropCoefficientWaterNC = global_30min_from_gmd_paper_input/routing/kc_surface_water/cropCoefficientForOpenWater.nc
minCropWaterKC         = 1.00

#~ (pcrglobwb_python3) sutan101@gpu038.cluster:/scratch/depfg/sutan101/data/pcrglobwb_input_arise/develop/global_30sec/routing/surface_water_bodies/version_2020-05-XX$ ls -lah *.nc
#~ -r--r--r-- 1 sutan101 depfg 209G Jan 28 19:05 lakes_and_reservoirs_30sec_global_2010_to_2019_version_202005XX.nc
#~ -r--r--r-- 1 sutan101 depfg  21G Jan 28 19:09 lakes_and_reservoirs_30sec_global_2019_version_202005XX.nc
#~ -r--r--r-- 1 sutan101 depfg 1.8G Jan 28 19:10 lddsound_30sec_version_202005XX_correct_lat.nc
#~ -r--r--r-- 1 sutan101 depfg 891M Jan 28 19:10 lddsound_30sec_version_202005XX.nc

# lake and reservoir parameters - TODO: Using the ones that have a dynamic
includeWaterBodies        = True
waterBodyInputNC          = thailand_30sec/routing/surface_water_bodies/south-east-asia_india_version_2023-03-23/lakes_and_reservoirs_30sec_sea_india_version_20230323.nc
onlyNaturalWaterBodies    = False


# initial conditions:
waterBodyStorageIni            = initialConditions/chaophraya_30sec_version_20230310/waterBodyStorage_1978-12-31.map
channelStorageIni              = initialConditions/chaophraya_30sec_version_20230310/channelStorage_1978-12-31.map
readAvlChannelStorageIni       = initialConditions/chaophraya_30sec_version_20230310/readAvlChannelStorage_1978-12-31.map
avgDischargeLongIni            = initialConditions/chaophraya_30sec_version_20230310/avgDischargeLong_1978-12-31.map
avgDischargeShortIni           = initialConditions/chaophraya_30sec_version_20230310/avgDischargeShort_1978-12-31.map
m2tDischargeLongIni            = initialConditions/chaophraya_30sec_version_20230310/m2tDischargeLong_1978-12-31.map
avgBaseflowLongIni             = initialConditions/chaophraya_30sec_version_20230310/avgBaseflowLong_1978-12-31.map
riverbedExchangeIni            = initialConditions/chaophraya_30sec_version_20230310/riverbedExchange_1978-12-31.map
subDischargeIni                = initialConditions/chaophraya_30sec_version_20230310/subDischarge_1978-12-31.map
avgLakeReservoirInflowShortIni = initialConditions/chaophraya_30sec_version_20230310/avgLakeReservoirInflowShort_1978-12-31.map
avgLakeReservoirOutflowLongIni = initialConditions/chaophraya_30sec_version_20230310/avgLakeReservoirOutflowLong_1978-12-31.map
timestepsToAvgDischargeIni     = initialConditions/chaophraya_30sec_version_20230310/timestepsToAvgDischarge_1978-12-31.map


[reportingOptions]

# landmask for reporting
landmask_for_reporting = None

# output files that will be written in the disk in netcdf files:
# - daily resolution
#~ outDailyTotNC = discharge,totalRunoff,gwRecharge,totalGroundwaterAbstraction,surfaceWaterStorage,temperature,precipitation,referencePotET,satDegUpp,satDegLow,satDegTotal,totalEvaporation,channelStorage,dynamicFracWat,floodVolume,floodDepth,surfaceWaterLevel
outDailyTotNC    = discharge,totalRunoff
# - monthly resolution
outMonthTotNC = actualET,irrPaddyWaterWithdrawal,irrNonPaddyWaterWithdrawal,domesticWaterWithdrawal,industryWaterWithdrawal,livestockWaterWithdrawal,runoff,totalRunoff,baseflow,directRunoff,interflowTotal,totalGroundwaterAbstraction,desalinationAbstraction,surfaceWaterAbstraction,nonFossilGroundwaterAbstraction,fossilGroundwaterAbstraction,irrGrossDemand,nonIrrGrossDemand,totalGrossDemand,nonIrrWaterConsumption,nonIrrReturnFlow,precipitation,gwRecharge,surfaceWaterInf,referencePotET,totalEvaporation,totalPotentialEvaporation,totLandSurfaceActuaET,totalLandSurfacePotET,waterBodyActEvaporation,waterBodyPotEvaporation