[globalOptions]
outputDir            = MAIN_OUTPUT_DIRECTORY
inputDir             = MAIN_INPUT_DIRECTORY
cloneMap             = defined_global_landmask_river_and_land_mask_all.map
landmask             = defined_global_landmask_river_and_land_mask_all.map
institution          = Department of Physical Geography, Utrecht University
title                = PCR-GLOBWB output (not coupled to MODFLOW), version for Ulysses ; MAIN_OUTPUT_DIRECTORY
description          = by Edwin H. Sutanudjaja (contact: e.h.sutanudjaja@uu.nl)
startTime            = STARTING_DATE
endTime              = END_DATE
minConvForSoilSto    = 0.0
minConvForGwatSto    = 0.0
minConvForChanSto    = 0.0
minConvForTotlSto    = 0.0
maxSpinUpsInYears    = 0

[meteoOptions]
referenceETPotMethod       = Input
precipitationNC            = PRECIPITATION_FORCING_FILE
temperatureNC              = TEMPERATURE_FORCING_FILE
refETPotFileNC             = REF_POT_ET_FORCING_FILE
precipitationVariableName  = pre
temperatureVariableName    = tavg
referenceEPotVariableName  = pet
precipitationConstant      = 0.0
precipitationFactor        = 0.001
temperatureConstant        = 0.0
temperatureFactor          = 1.0
referenceEPotConstant      = 0.0
referenceEPotFactor        = 0.001
rounddownPrecipitation     = False


[landSurfaceOptions]
debugWaterBalance             = True
numberOfUpperSoilLayers       = 2
topographyNC                  = topography_parameters_6min_ulysses_v20231130_merged_covered_with_zero.nc
soilPropertiesNC              = None
firstStorDepth                = layerDepth_average_1_global_06min.nc
secondStorDepth               = layerDepth_average_2_global_06min.nc
soilWaterStorageCap1          = WHC_average_1_global_06min.nc
soilWaterStorageCap2          = WHC_average_2_global_06min.nc
airEntryValue1                = psiAir_average_1_global_06min.nc
airEntryValue2                = psiAir_average_2_global_06min.nc
poreSizeBeta1                 = BCH_average_1_global_06min.nc
poreSizeBeta2                 = BCH_average_2_global_06min.nc
resVolWC1                     = vmcRes_average_1_global_06min.nc
resVolWC2                     = vmcRes_average_2_global_06min.nc
satVolWC1                     = vmcSat_average_1_global_06min.nc
satVolWC2                     = vmcSat_average_2_global_06min.nc
KSat1                         = kSat_average_1_global_06min.nc
KSat2                         = kSat_average_2_global_06min.nc
percolationImp                = global_06min_impeded_drainage_permafrost_nsidc_dsmw_v20231129.nc.map
noParameterExtrapolation      = True
landCoverTypes                = forest,grassland
noLandCoverFractionCorrection = False


[forestOptions]
name                     = forest
debugWaterBalance        = True
snowModuleType           = Simple
freezingT                = 0.0
snowWaterHoldingCap      = 0.1
refreezingCoeff          = 0.05
degreeDayFactor          = 0.0055
minTopWaterLayer         = 0.0
minCropKC                = 0.2
cropCoefficientNC        = tall_crop_coefficient.nc
interceptCapNC           = tall_intercept_capacity.nc
coverFractionNC          = tall_cover_fraction.nc
landCoverMapsNC          = None
fracVegCover             = vegf_tall.map
minSoilDepthFrac         = minf_tall.map
maxSoilDepthFrac         = maxf_tall.map
rootFraction1            = rfrac1_tall.map
rootFraction2            = rfrac2_tall.map
maxRootDepth             = maxrootdepth_tall.map
arnoBeta                 = None
noParameterExtrapolation = True
interceptStorIni         = MAIN_INITIAL_STATE_FOLDER/interceptStor_forest_DATE_FOR_INITIAL_STATES.map
snowCoverSWEIni          = MAIN_INITIAL_STATE_FOLDER/snowCoverSWE_forest_DATE_FOR_INITIAL_STATES.map
snowFreeWaterIni         = MAIN_INITIAL_STATE_FOLDER/snowFreeWater_forest_DATE_FOR_INITIAL_STATES.map
topWaterLayerIni         = MAIN_INITIAL_STATE_FOLDER/topWaterLayer_forest_DATE_FOR_INITIAL_STATES.map
storUppIni               = MAIN_INITIAL_STATE_FOLDER/storUpp_forest_DATE_FOR_INITIAL_STATES.map
storLowIni               = MAIN_INITIAL_STATE_FOLDER/storLow_forest_DATE_FOR_INITIAL_STATES.map
interflowIni             = MAIN_INITIAL_STATE_FOLDER/interflow_forest_DATE_FOR_INITIAL_STATES.map


[grasslandOptions]
name                     = grassland
debugWaterBalance        = True
snowModuleType           = Simple
freezingT                = 0.0
snowWaterHoldingCap      = 0.1
refreezingCoeff          = 0.05
degreeDayFactor          = 0.0055
minTopWaterLayer         = 0.0
minCropKC                = 0.2
cropCoefficientNC        = short_crop_coefficient.nc
interceptCapNC           = short_intercept_capacity.nc
coverFractionNC          = short_cover_fraction.nc
landCoverMapsNC          = None
fracVegCover             = vegf_short.map
minSoilDepthFrac         = minf_short.map
maxSoilDepthFrac         = maxf_short.map
rootFraction1            = rfrac1_short.map
rootFraction2            = rfrac2_short.map
maxRootDepth             = maxrootdepth_short.map
noParameterExtrapolation = True
interceptStorIni         = MAIN_INITIAL_STATE_FOLDER/interceptStor_grassland_DATE_FOR_INITIAL_STATES.map
snowCoverSWEIni          = MAIN_INITIAL_STATE_FOLDER/snowCoverSWE_grassland_DATE_FOR_INITIAL_STATES.map
snowFreeWaterIni         = MAIN_INITIAL_STATE_FOLDER/snowFreeWater_grassland_DATE_FOR_INITIAL_STATES.map
topWaterLayerIni         = MAIN_INITIAL_STATE_FOLDER/topWaterLayer_grassland_DATE_FOR_INITIAL_STATES.map
storUppIni               = MAIN_INITIAL_STATE_FOLDER/storUpp_grassland_DATE_FOR_INITIAL_STATES.map
storLowIni               = MAIN_INITIAL_STATE_FOLDER/storLow_grassland_DATE_FOR_INITIAL_STATES.map
interflowIni             = MAIN_INITIAL_STATE_FOLDER/interflow_grassland_DATE_FOR_INITIAL_STATES.map


[groundwaterOptions]
debugWaterBalance                         = True
groundwaterPropertiesNC                   = None
recessionCoeff                            = recession_coefficient_06min_filled_v20231205.map
specificYield                             = specific_yield_aquifer_06min_filled_v20231205.map
kSatAquifer                               = k_conductivity_aquifer_06min_filled_v20231205.map    
minRecessionCoeff                         = 0.00025
baseflow_exponent                         = 1.5
doNotExtrapolateThickness                 = True
noParameterExtrapolation                  = True
storGroundwaterIni                        = MAIN_INITIAL_STATE_FOLDER/storGroundwater_DATE_FOR_INITIAL_STATES.map
avgStorGroundwaterIni                     = MAIN_INITIAL_STATE_FOLDER/avgStorGroundwater_DATE_FOR_INITIAL_STATES.map
storGroundwaterFossilIni                  = 0.0
avgNonFossilGroundwaterAllocationLongIni  = 0.0
avgNonFossilGroundwaterAllocationShortIni = 0.0
avgTotalGroundwaterAbstractionIni         = 0.0
avgTotalGroundwaterAllocationLongIni      = 0.0
avgTotalGroundwaterAllocationShortIni     = 0.0
relativeGroundwaterHeadIni                = MAIN_INITIAL_STATE_FOLDER/relativeGroundwaterHead_DATE_FOR_INITIAL_STATES.map
baseflowIni                               = MAIN_INITIAL_STATE_FOLDER/baseflow_DATE_FOR_INITIAL_STATES.map


[routingOptions]
debugWaterBalance                       = True
lddMap                                  = lddsound_06min_version_202007XX_for_ulysses.map
cellAreaMap                             = cellarea.map
routingMethod                           = accuTravelTime
manningsN                               = 0.04
dynamicFloodPlain                       = False
gradient                                = gradient_channel_parameters_6min_ulysses_v20231130_merged.nc.map
constantChannelDepth                    = bankfull_depth_channel_parameters_6min_ulysses_v20231130_merged.nc.map
constantChannelWidth                    = bankfull_width_channel_parameters_6min_ulysses_v20231130_merged.nc.map
minimumChannelWidth                     = bankfull_width_channel_parameters_6min_ulysses_v20231130_merged.nc.map
bankfullCapacity                        = None
cropCoefficientWaterNC                  = cropCoefficientForOpenWater.nc
minCropWaterKC                          = 1.00
includeWaterBodies                      = True
waterBodyInputNC                        = lakes_and_reservoirs_06min_global_version_july_2020_for_ulysses.nc
onlyNaturalWaterBodies                  = False
cover_runoff_and_open_water_evaporation = True
waterBodyStorageIni                     = MAIN_INITIAL_STATE_FOLDER/waterBodyStorage_DATE_FOR_INITIAL_STATES.map
channelStorageIni                       = MAIN_INITIAL_STATE_FOLDER/channelStorage_DATE_FOR_INITIAL_STATES.map
readAvlChannelStorageIni                = MAIN_INITIAL_STATE_FOLDER/readAvlChannelStorage_DATE_FOR_INITIAL_STATES.map
avgDischargeLongIni                     = MAIN_INITIAL_STATE_FOLDER/avgDischargeLong_DATE_FOR_INITIAL_STATES.map
avgDischargeShortIni                    = MAIN_INITIAL_STATE_FOLDER/avgDischargeShort_DATE_FOR_INITIAL_STATES.map
m2tDischargeLongIni                     = MAIN_INITIAL_STATE_FOLDER/m2tDischargeLong_DATE_FOR_INITIAL_STATES.map
avgBaseflowLongIni                      = MAIN_INITIAL_STATE_FOLDER/avgBaseflowLong_DATE_FOR_INITIAL_STATES.map
riverbedExchangeIni                     = MAIN_INITIAL_STATE_FOLDER/riverbedExchange_DATE_FOR_INITIAL_STATES.map
subDischargeIni                         = MAIN_INITIAL_STATE_FOLDER/subDischarge_DATE_FOR_INITIAL_STATES.map
avgLakeReservoirInflowShortIni          = MAIN_INITIAL_STATE_FOLDER/avgLakeReservoirInflowShort_DATE_FOR_INITIAL_STATES.map
avgLakeReservoirOutflowLongIni          = MAIN_INITIAL_STATE_FOLDER/avgLakeReservoirOutflowLong_DATE_FOR_INITIAL_STATES.map
timestepsToAvgDischargeIni              = MAIN_INITIAL_STATE_FOLDER/timestepsToAvgDischarge_DATE_FOR_INITIAL_STATES.map


[reportingOptions]
landmask_for_reporting  = land_mask_only.map
utDailyTotNC            = ulyssesP,ulyssesET,ulyssesSWE,ulyssesQsm,ulyssesSM,ulyssesQrRunoff,ulyssesDischarge,ulyssessRefPET,ulyssessCropPET,ulyssesSnowFraction,ulyssesSMUpp,ulyssesSMLow,ulyssesTWS,temperature
outMonthTotNC           = precipitation,actualET,runoff,totalRunoff,totalEvaporation
outMonthAvgNC           = ulyssesP,ulyssesET,ulyssesSWE,ulyssesQsm,ulyssesSM,ulyssesQrRunoff,ulyssesDischarge,ulyssessRefPET,ulyssessCropPET,ulyssesSnowFraction,ulyssesSMUpp,ulyssesSMLow,ulyssesTWS,temperature,discharge
outMonthEndNC           = None
outAnnuaTotNC           = None
outAnnuaAvgNC           = None
outAnnuaEndNC           = None
outMonthMaxNC           = None
outAnnuaMaxNC           = None
formatNetCDF            = NETCDF4
zlib                    = True
save_monthly_end_states = True


[prefactorOptions]
log_10_multiplier_for_recessionCoeff = SQUARE_ROOT


[modificationBasedOnSystemArgumentOptions]
-mod          = MAIN_OUTPUT_DIRECTORY
-mid          = MAIN_INPUT_DIRECTORY
-sd           = STARTING_DATE   
-ed           = END_DATE
-pff          = PRECIPITATION_FORCING_FILE
-tff          = TEMPERATURE_FORCING_FILE
-rpetff       = REF_POT_ET_FORCING_FILE
-misf         = MAIN_INITIAL_STATE_FOLDER  
-dfis         = DATE_FOR_INITIAL_STATES  

