[globalOptions]

# Set the pcrglobwb output directory in an absolute path.
#~ outputDir  = MAIN_OUTPUT_DIR
outputDir     = /scratch/depfg/sutan101/thailand_30sec/version_20230310/


# Set the input directory map in an absolute path. 
# - The input forcing and parameter directories and files will be relative to this.
inputDir    = /scratch/depfg/sutan101/data/pcrglobwb_input_arise/develop/


# Map of clone (must be provided in PCRaster maps)
# - Spatial resolution and coverage are based on this map:
cloneMap    = /scratch/depfg/sutan101/thailand_30sec/clone_maps/version_20230310/clone_thailand_onedeg_for_testing.map


# The area/landmask of interest:
# If None, area/landmask is limited for cells with ldd value. 
landmask    = None
#~ landmask = /scratch/depfg/sutan101/thailand_30sec/clone_maps/version_20230310/mask_thailand.map

sutan101@node032.cluster:/scratch/depfg/sutan101/thailand_30sec/clone_maps/version_20230310$ ls -lah
total 3.8M
drwxr-xr-x 3 sutan101 depfg    5 Mar 10 22:54 .
drwxr-xr-x 3 sutan101 depfg    1 Mar 10 22:31 ..
-rw-r--r-- 1 sutan101 depfg 1.9M Mar 10 22:36 clone_thailand.map
-rw-r--r-- 1 sutan101 depfg  15K Mar 10 22:54 clone_thailand_onedeg_for_testing.map
-rw-r--r-- 1 sutan101 depfg  15K Mar 10 22:53 clone_thailand_onedeg_for_testing.tif
-rw-r--r-- 1 sutan101 depfg 1.9M Mar 10 22:36 mask_thailand.map
drwxr-xr-x 2 sutan101 depfg    0 Mar 10 22:36 tmp


# netcdf attributes for output files:
institution = Department of Physical Geography, Utrecht University
title       = PCR-GLOBWB 2 output (not coupled to MODFLOW), with human factors (non-natural) - MAIN_OUTPUT_DIR
description = by Edwin H. Sutanudjaja (contact: e.h.sutanudjaja@uu.nl), PCR-GLOBWB run with human factors (non-natural) at 30 arcsec resolution - MAIN_OUTPUT_DIR


#~ startTime = STARTING_DATE
#~ endTime   = END_DATE
#~ # Format: YYYY-MM-DD ; The model runs on daily time step.


startTime = 1978-01-01
endTime   = 2019-12-31
# Format: YYYY-MM-DD ; The model runs on daily time step.


# spinning up options:
#~ maxSpinUpsInYears = 5
maxSpinUpsInYears    = 20
minConvForSoilSto    = 0.0
minConvForGwatSto    = 0.0
minConvForChanSto    = 0.0
minConvForTotlSto    = 0.0


# option/directory for saving the spin-up directory 
spinUpOutputDir = True



[meteoOptions]

#~ sutan101@node032.cluster:/scratch/depfg/sutan101/data/isimip_forcing/isimip3a_version_2021-09-XX/copied_on_2021-09-XX/GSWP3-W5E5/merged/w5e5_1979-2019_with_climatology_on_1978$ ls -lah gswp3-w5e5_obsclim_*
#~ -rw-r--r-- 1 sutan101 depfg 15G Dec 12 15:21 gswp3-w5e5_obsclim_hurs_global_daily_1979-2019_version_2021-09-XX_with_climatology_on_1978.nc
#~ -rw-r--r-- 1 sutan101 depfg 15G Dec 12 15:22 gswp3-w5e5_obsclim_huss_global_daily_1979-2019_version_2021-09-XX_with_climatology_on_1978.nc
#~ -rw-r--r-- 1 sutan101 depfg 15G Dec 12 15:23 gswp3-w5e5_obsclim_pr_global_daily_1979-2019_version_2021-09-XX_with_climatology_on_1978.nc
#~ -rw-r--r-- 1 sutan101 depfg 15G Dec 12 15:24 gswp3-w5e5_obsclim_prsn_global_daily_1979-2019_version_2021-09-XX_with_climatology_on_1978.nc
#~ -rw-r--r-- 1 sutan101 depfg 15G Dec 12 15:25 gswp3-w5e5_obsclim_ps_global_daily_1979-2019_version_2021-09-XX_with_climatology_on_1978.nc
#~ -rw-r--r-- 1 sutan101 depfg 15G Dec 12 15:26 gswp3-w5e5_obsclim_rlds_global_daily_1979-2019_version_2021-09-XX_with_climatology_on_1978.nc
#~ -rw-r--r-- 1 sutan101 depfg 15G Dec 12 15:27 gswp3-w5e5_obsclim_rsds_global_daily_1979-2019_version_2021-09-XX_with_climatology_on_1978.nc
#~ -rw-r--r-- 1 sutan101 depfg 15G Dec 12 15:28 gswp3-w5e5_obsclim_sfcwind_global_daily_1979-2019_version_2021-09-XX_with_climatology_on_1978.nc
#~ -rw-r--r-- 1 sutan101 depfg 15G Dec 12 15:29 gswp3-w5e5_obsclim_tas_global_daily_1979-2019_version_2021-09-XX_with_climatology_on_1978.nc
#~ -rw-r--r-- 1 sutan101 depfg 15G Dec 12 15:30 gswp3-w5e5_obsclim_tasmax_global_daily_1979-2019_version_2021-09-XX_with_climatology_on_1978.nc
#~ -rw-r--r-- 1 sutan101 depfg 15G Dec 12 15:31 gswp3-w5e5_obsclim_tasmin_global_daily_1979-2019_version_2021-09-XX_with_climatology_on_1978.nc


# Set the forcing temperature and precipitation files
precipitationNC    = /scratch/depfg/sutan101/data/isimip_forcing/isimip3a_version_2021-09-XX/copied_on_2021-09-XX/GSWP3-W5E5/merged/w5e5_1979-2019_with_climatology_on_1978/gswp3-w5e5_obsclim_pr_global_daily_1979-2019_version_2021-09-XX_with_climatology_on_1978.nc
temperatureNC      = /scratch/depfg/sutan101/data/isimip_forcing/isimip3a_version_2021-09-XX/copied_on_2021-09-XX/GSWP3-W5E5/merged/w5e5_1979-2019_with_climatology_on_1978/gswp3-w5e5_obsclim_tas_global_daily_1979-2019_version_2021-09-XX_with_climatology_on_1978.nc


# conversion constants and factors to correct forcing values (optional) so that the units are in m.day-1 and degree Celcius                                                                                                           
precipitationConstant    = 0.0
precipitationFactor      = 86.4
temperatureConstant      = -273.15
temperatureFactor        = 1.0


# Method to calculate referencePotETP (reference potential evaporation+transpiration)
referenceETPotMethod = Penman-Monteith
refETPotFileNC       = None


#~ # - test with Hamon
#~ referenceETPotMethod = Hamon
#~ refETPotFileNC       = None

#~ # - using the input file
#~ referenceETPotMethod    = Input
#~ refETPotFileNC          = /scratch/depfg/sutan101/pcrglobwb_aqueduct_2021/version_2021-06-23_w5e5v2_updated_gmd_parameters/global/merged_ref_pot_et/merged_1979-2019_with_climatology_on_1978/referencePotET_dailyTot_output_1979-2019_with_climatology_on_1978.nc


# meteo variables for calculating reference potential evaporation based on Penman-Monteith (optional)
#
# - 10 m wind speed, unit: m.s-1
wind_speed_10m              = /scratch/depfg/sutan101/data/isimip_forcing/isimip3a_version_2021-09-XX/copied_on_2021-09-XX/GSWP3-W5E5/merged/w5e5_1979-2019_with_climatology_on_1978/gswp3-w5e5_obsclim_sfcwind_global_daily_1979-2019_version_2021-09-XX_with_climatology_on_1978.nc
#~ # - if wind_speed_10m is None, it will be estimated from u and v components
#~ wind_speed_10m_u_comp    = None
#~ wind_speed_10m_v_comp    = None
#
# - atmospheric pressure, unit: Pascal
atmospheric_pressure        = /scratch/depfg/sutan101/data/isimip_forcing/isimip3a_version_2021-09-XX/copied_on_2021-09-XX/GSWP3-W5E5/merged/w5e5_1979-2019_with_climatology_on_1978/gswp3-w5e5_obsclim_ps_global_daily_1979-2019_version_2021-09-XX_with_climatology_on_1978.nc
#
# - shortwave (solar) radiation, unit: J.m-2.day-1 (default) or W.m-2
shortwave_radiation_input_in_w_per_m2 = True 
shortwave_radiation  = /scratch/depfg/sutan101/data/isimip_forcing/isimip3a_version_2021-09-XX/copied_on_2021-09-XX/GSWP3-W5E5/merged/w5e5_1979-2019_with_climatology_on_1978/gswp3-w5e5_obsclim_rsds_global_daily_1979-2019_version_2021-09-XX_with_climatology_on_1978.nc
#
# - relative humidity, unit: 1 
relative_humidity    = /scratch/depfg/sutan101/data/isimip_forcing/isimip3a_version_2021-09-XX/copied_on_2021-09-XX/GSWP3-W5E5/merged/w5e5_1979-2019_with_climatology_on_1978/gswp3-w5e5_obsclim_hurs_global_daily_1979-2019_version_2021-09-XX_with_climatology_on_1978.nc
#
# - conversion constant for the relative_humidity so that the values ranging from 0 to 1
consta_for_relative_humidity = 0.0                                                                                                      
factor_for_relative_humidity = 0.01 


# initial conditions:
avgAnnualDiurnalDeltaTempIni = /scratch/depfg/sutan101/pcrglobwb_wri_aqueduct_2021/pcrglobwb_aqueduct_2021_states_files_selected/version_2021-09-16/gswp3-w5e5_rerun/historical-reference/begin_from_1960/global/states/avgAnnualDiurnalDeltaTemp_1978-12-31.map
avgAnnualPrecipitationIni    = /scratch/depfg/sutan101/pcrglobwb_wri_aqueduct_2021/pcrglobwb_aqueduct_2021_states_files_selected/version_2021-09-16/gswp3-w5e5_rerun/historical-reference/begin_from_1960/global/states/avgAnnualPrecipitation_1978-12-31.map
avgAnnualTemperatureIni      = /scratch/depfg/sutan101/pcrglobwb_wri_aqueduct_2021/pcrglobwb_aqueduct_2021_states_files_selected/version_2021-09-16/gswp3-w5e5_rerun/historical-reference/begin_from_1960/global/states/avgAnnualTemperature_1978-12-31.map


# - for debugging
#~ outDailyTotNC = precipitation_before_downscaling,temperature_before_downscaling,referencePotET_before_downscaling,cellArea,avgAnnualPrecipitation        
outDailyTotNC = None        
outMonthTotNC = None 
outMonthAvgNC = None
outMonthEndNC = None
outAnnuaTotNC = None
outAnnuaAvgNC = None
outAnnuaEndNC = None



[meteoDownscalingOptions]
                                                                                                                                        
downscalePrecipitation  = False                                                                                                                                   
downscaleTemperature    = True                                                                                                                                  
downscaleReferenceETPot = False                                                                                                                                   
   
# downscaling (based on the digital elevation model):                                                                                                            
highResolutionDEM = global_30sec/landSurface/topography/merit_dem_processed/version_2021-02-XX/maps_covered_with_zero/dem_average_topography_parameters_30sec_february_2021_global_covered_with_zero.nc

# The downscaling will be performed by providing the "cellIds" (meteoDownscaleIds) of lower resolution cells.                                                    
meteoDownscaleIds = global_30sec/meteo/unique_ids/unique_ids_150_arcsec_correct_lats.nc

# lapse rates:                                                                                                                                                   
temperLapseRateNC = global_05min_from_gmd_paper_input/meteo/downscaling_from_30min/temperature_slope.nc                                                                     
precipLapseRateNC = global_05min_from_gmd_paper_input/meteo/downscaling_from_30min/precipitation_slope.nc                                                                   
                                                                                                                                                                 
# downscaling criteria (TODO: remove these):                                                                                                                     
temperatCorrelNC  = global_05min_from_gmd_paper_input/meteo/downscaling_from_30min/temperature_correl.nc                                                                     
precipitCorrelNC  = global_05min_from_gmd_paper_input/meteo/downscaling_from_30min/precipitation_correl.nc                                                                   
	                                                                                                                                                                 
# windows length (unit: arc-degree) for smoothing/averaging forcing data (not recommended):                                                                      
smoothingWindowsLength = 0


[landSurfaceOptions]

debugWaterBalance = True

numberOfUpperSoilLayers = 2

# topography parameters
# - they are used for all land cover types, unless they are are defined in certain land cover type options 
#   (e.g. different/various soil types for agriculture areas)  
topographyNC = global_30sec/landSurface/topography/merit_dem_processed/version_2021-02-XX/maps_covered_with_zero/topography_parameters_30sec_february_2021_global_covered_with_zero.nc


# using DSMW Soil Map of the World - TODO: Replace this using SoilGrids
soilPropertiesNC = None
# - if soilPropertiesNC = None, the following soil parameters will be used
firstStorDepth       = /scratch/depfg/sutan101/data/soil_dsmsw_30sec/west/West_SoilDepth-LAYER1_DSMW_30sec.map
secondStorDepth      = /scratch/depfg/sutan101/data/soil_dsmsw_30sec/west/West_SoilDepth-LAYER2_DSMW_30sec.map
soilWaterStorageCap1 = /scratch/depfg/sutan101/data/soil_dsmsw_30sec/west/West_StorageCapacity-LAYER1_DSMW_30sec.map
soilWaterStorageCap2 = /scratch/depfg/sutan101/data/soil_dsmsw_30sec/west/West_StorageCapacity-LAYER2_DSMW_30sec.map
airEntryValue1       = /scratch/depfg/sutan101/data/soil_dsmsw_30sec/west/West_AirEntryValue-LAYER1_DSMW_30sec.map
airEntryValue2       = /scratch/depfg/sutan101/data/soil_dsmsw_30sec/west/West_AirEntryValue-LAYER2_DSMW_30sec.map
poreSizeBeta1        = /scratch/depfg/sutan101/data/soil_dsmsw_30sec/west/West_ShapeFactor-LAYER1_DSMW_30sec.map
poreSizeBeta2        = /scratch/depfg/sutan101/data/soil_dsmsw_30sec/west/West_ShapeFactor-LAYER2_DSMW_30sec.map
resVolWC1            = /scratch/depfg/sutan101/data/soil_dsmsw_30sec/west/West_ThetaRes-LAYER1_DSMW_30sec.map
resVolWC2            = /scratch/depfg/sutan101/data/soil_dsmsw_30sec/west/West_ThetaRes-LAYER2_DSMW_30sec.map
satVolWC1            = /scratch/depfg/sutan101/data/soil_dsmsw_30sec/west/West_ThetaSat-LAYER1_DSMW_30sec.map
satVolWC2            = /scratch/depfg/sutan101/data/soil_dsmsw_30sec/west/West_ThetaSat-LAYER2_DSMW_30sec.map
KSat1                = /scratch/depfg/sutan101/data/soil_dsmsw_30sec/west/West_SatHydConduct-LAYER1_DSMW_30sec.map
KSat2                = /scratch/depfg/sutan101/data/soil_dsmsw_30sec/west/West_SatHydConduct-LAYER2_DSMW_30sec.map

#~ sutan101@node032.cluster:/scratch/depfg/sutan101/data/soil_dsmsw_30sec/west$ ls -lah *.map
#~ -rw-r--r-- 1 sutan101 depfg 1.8G Jul  8  2013 West_AirEntryValue-LAYER1_DSMW_30sec.map
#~ -rw-r--r-- 1 sutan101 depfg 1.8G Jul  8  2013 West_AirEntryValue-LAYER2_DSMW_30sec.map
#~ -rw-r--r-- 1 sutan101 depfg 1.8G Jul  8  2013 West_Extent-ALL_nsidc_30sec.map
#~ -rw-r--r-- 1 sutan101 depfg 1.8G Jul  8  2013 West_ImpededDrainage-ALL_DSMW_30sec.map
#~ -rw-r--r-- 1 sutan101 depfg 1.8G Jul  8  2013 West_ImpededDrainage_permafrost-ALL_DSMW_30sec.map
#~ -rw-r--r-- 1 sutan101 depfg 1.8G Jul  8  2013 West_MeanSoilDepthFactor-ALL_nsidc_30sec.map
#~ -rw-r--r-- 1 sutan101 depfg 1.8G Jul  8  2013 West_MinimumSoilDepthFactor -ALL_nsidc_30sec.map
#~ -rw-r--r-- 1 sutan101 depfg 1.8G Jul  8  2013 West_SatHydConduct-LAYER1_DSMW_30sec.map
#~ -rw-r--r-- 1 sutan101 depfg 1.8G Jul  8  2013 West_SatHydConduct-LAYER2_DSMW_30sec.map
#~ -rw-r--r-- 1 sutan101 depfg 1.8G Jul  8  2013 West_ShapeFactor-LAYER1_DSMW_30sec.map
#~ -rw-r--r-- 1 sutan101 depfg 1.8G Jul  8  2013 West_ShapeFactor-LAYER2_DSMW_30sec.map
#~ -rw-r--r-- 1 sutan101 depfg 1.8G Jul  8  2013 West_SoilDepth-ALL_DSMW_30sec.map
#~ -rw-r--r-- 1 sutan101 depfg 1.8G Jul  8  2013 West_SoilDepth-LAYER1_DSMW_30sec.map
#~ -rw-r--r-- 1 sutan101 depfg 1.8G Jul  8  2013 West_SoilDepth-LAYER2_DSMW_30sec.map
#~ -rw-r--r-- 1 sutan101 depfg 1.8G Jul  8  2013 West_SoilDepth_permafrost-ALL_DSMW_30sec.map
#~ -rw-r--r-- 1 sutan101 depfg 1.8G Jul  8  2013 West_SoilDepth_permafrost-LAYER1_DSMW_30sec.map
#~ -rw-r--r-- 1 sutan101 depfg 1.8G Jul  8  2013 West_SoilDepth_permafrost-LAYER2_DSMW_30sec.map
#~ -rw-r--r-- 1 sutan101 depfg 1.8G Jul  8  2013 West_StorageCapacity-ALL_DSMW_30sec.map
#~ -rw-r--r-- 1 sutan101 depfg 1.8G Jul  8  2013 West_StorageCapacity-LAYER1_DSMW_30sec.map
#~ -rw-r--r-- 1 sutan101 depfg 1.8G Jul  8  2013 West_StorageCapacity-LAYER2_DSMW_30sec.map
#~ -rw-r--r-- 1 sutan101 depfg 1.8G Jul  8  2013 West_StorageCapacity_permafrost-ALL_DSMW_30sec.map
#~ -rw-r--r-- 1 sutan101 depfg 1.8G Jul  8  2013 West_StorageCapacity_permafrost-LAYER1_DSMW_30sec.map
#~ -rw-r--r-- 1 sutan101 depfg 1.8G Jul  8  2013 West_StorageCapacity_permafrost-LAYER2_DSMW_30sec.map
#~ -rw-r--r-- 1 sutan101 depfg 1.8G Jul  8  2013 West_ThetaEffpF20-LAYER1_DSMW_30sec.map
#~ -rw-r--r-- 1 sutan101 depfg 1.8G Jul  8  2013 West_ThetaEffpF20-LAYER2_DSMW_30sec.map
#~ -rw-r--r-- 1 sutan101 depfg 1.8G Jul  8  2013 West_ThetaEffpF25-LAYER1_DSMW_30sec.map
#~ -rw-r--r-- 1 sutan101 depfg 1.8G Jul  8  2013 West_ThetaEffpF25-LAYER2_DSMW_30sec.map
#~ -rw-r--r-- 1 sutan101 depfg 1.8G Jul  8  2013 West_ThetaEffpF42-LAYER1_DSMW_30sec.map
#~ -rw-r--r-- 1 sutan101 depfg 1.8G Jul  8  2013 West_ThetaEffpF42-LAYER2_DSMW_30sec.map
#~ -rw-r--r-- 1 sutan101 depfg 1.8G Jul  8  2013 West_ThetaRes-LAYER1_DSMW_30sec.map
#~ -rw-r--r-- 1 sutan101 depfg 1.8G Jul  8  2013 West_ThetaRes-LAYER2_DSMW_30sec.map
#~ -rw-r--r-- 1 sutan101 depfg 1.8G Jul  8  2013 West_ThetaSat-LAYER1_DSMW_30sec.map
#~ -rw-r--r-- 1 sutan101 depfg 1.8G Jul  8  2013 West_ThetaSat-LAYER2_DSMW_30sec.map
#~ -rw-r--r-- 1 sutan101 depfg 1.8G Jul  8  2013 West_Type-ALL_nsidc_30sec.map

percolationImp       = global_30sec/landSurface/soil/impeded_drainage/global_30sec_impeded_drainage_permafrost_dsmw_correct_lats.nc


includeIrrigation = True

#~ # netcdf time series for historical expansion of irrigation areas (unit: hectares). 
#~ # Note: The resolution of this map must be consisten with the resolution of cellArea. 
#~ historicalIrrigationArea = global_05min/waterUse/irrigation/irrigated_areas/irrigationArea05ArcMin.nc
#~ # TODO: Update this using fraction from Louise


# land cover classes
landCoverTypes = naturalVegetationAndRainFedCrops,irrPaddy,irrNonPaddy

# we have to correct land cover fractions
noLandCoverFractionCorrection = False


# a pcraster map/value defining irrigation efficiency (dimensionless) - optional
irrigationEfficiency = global_30min_from_gmd_paper_input/waterUse/irrigation/irrigation_efficiency/efficiency.nc


includeDomesticWaterDemand  = True
includeIndustryWaterDemand  = True
includeLivestockWaterDemand = True


# domestic, industrial and livestock water demand data (unit must be in m.day-1)
domesticWaterDemandFile  = global_05min_from_gmd_paper_input/waterUse/waterDemand/domestic/domestic_water_demand_version_april_2015.nc
industryWaterDemandFile  = global_05min_from_gmd_paper_input/waterUse/waterDemand/industry/industry_water_demand_version_april_2015.nc
livestockWaterDemandFile = global_05min_from_gmd_paper_input/waterUse/waterDemand/livestock/livestock_water_demand_version_april_2015.nc


# desalination water supply (maximum/potential/capacity)
desalinationWater = global_05min_from_gmd_paper_input/waterUse/desalination/desalination_water_version_april_2015.nc


# zone IDs (scale) at which allocations of groundwater and surface water (as well as desalinated water) are performed  
allocationSegmentsForGroundSurfaceWater = global_05min_from_gmd_paper_input/waterUse/abstraction_zones/abstraction_zones_60min_05min.nc

# pcraster maps defining the partitioning of groundwater - surface water source 
#
# - predefined surface water - groundwater partitioning for irrigation demand (e.g. based on Siebert, Global Map of Irrigation Areas version 5)
irrigationSurfaceWaterAbstractionFractionData           = global_05min_from_gmd_paper_input/waterUse/source_partitioning/surface_water_fraction_for_irrigation/AEI_SWFRAC.nc
# -- quality map
irrigationSurfaceWaterAbstractionFractionDataQuality    = global_05min_from_gmd_paper_input/waterUse/source_partitioning/surface_water_fraction_for_irrigation/AEI_QUAL.nc
#
# - threshold values defining the preference for surface water source for irrigation purpose
# -- treshold to maximize surface water irrigation use (cells with irrSurfaceWaterAbstractionFraction above this will prioritize irrigation surface water use)
treshold_to_maximize_irrigation_surface_water           = 0.50
# -- treshold to minimize fossil water withdrawal for irrigation (cells with irrSurfaceWaterAbstractionFraction below this have no fossil withdrawal for irrigation)
treshold_to_minimize_fossil_groundwater_irrigation      = 0.70
#
# - predefined surface water - groundwater partitioning for non irrigation demand (e.g. based on McDonald, 2014)
maximumNonIrrigationSurfaceWaterAbstractionFractionData = global_30min_from_gmd_paper_input/waterUse/source_partitioning/surface_water_fraction_for_non_irrigation/max_city_sw_fraction.nc


# option to skip extrapolation
noParameterExtrapolation = True


[naturalVegetationAndRainFedCropsOptions]

name = naturalVegetationAndRainFedCrops
debugWaterBalance = True

# snow module properties
snowModuleType      =  Simple
freezingT           =  0.0
degreeDayFactor     =  0.0055
snowWaterHoldingCap =  0.1
refreezingCoeff     =  0.05

# other paramater values
minTopWaterLayer  = 0.0
minCropKC         = 0.2

cropCoefficientNC = global_30sec/landSurface/landCover/naturalVegetationAndRainFedCrops_version_2021-02-XX/composite-short-n-tall_crop_coefficient.nc
interceptCapNC    = global_30sec/landSurface/landCover/naturalVegetationAndRainFedCrops_version_2021-02-XX/composite-short-n-tall_intercept_capacity.nc
coverFractionNC   = global_30sec/landSurface/landCover/naturalVegetationAndRainFedCrops_version_2021-02-XX/composite-short-n-tall_cover_fraction.nc

landCoverMapsNC   = None
# If NC file is not provided, we have to provide the following pcraster maps:
fracVegCover      = 1.0
minSoilDepthFrac  = 0.99
maxSoilDepthFrac  = 1.01
rootFraction1     = global_30sec/landSurface/landCover/naturalVegetationAndRainFedCrops_version_2021-02-XX/rfrac1_all.nc
rootFraction2     = global_30sec/landSurface/landCover/naturalVegetationAndRainFedCrops_version_2021-02-XX/rfrac2_all.nc	
maxRootDepth      = global_30sec/landSurface/landCover/naturalVegetationAndRainFedCrops_version_2021-02-XX/meanrootdepth_all.nc
# Note: The maxRootDepth is not used for non irrigated land cover types. 	
#
# Parameters for the Arno's scheme:
arnoBeta = None
# If arnoBeta is defined, the soil water capacity distribution is based on this.
# If arnoBeta is NOT defined, maxSoilDepthFrac must be defined such that arnoBeta will be calculated based on maxSoilDepthFrac and minSoilDepthFrac.

#~ sutan101@node032.cluster:/scratch/depfg/sutan101/data/pcrglobwb_input_arise/develop/global_30sec/landSurface/landCover/naturalVegetationAndRainFedCrops_version_2021-02-XX$ ls -lah *.nc
#~ -rw-r--r-- 1 sutan101 depfg 1.3T Jan 19 23:20 composite-short-n-tall_cover_fraction.nc
#~ -rw-r--r-- 1 sutan101 depfg 1.3T Jan 20 01:01 composite-short-n-tall_crop_coefficient.nc
#~ -rw-r--r-- 1 sutan101 depfg 1.3T Jan 20 02:40 composite-short-n-tall_intercept_capacity.nc
#~ -rw-r--r-- 1 sutan101 depfg 1.3T Jan 20 04:19 composite-short-n-tall_leaf_area_index.nc
#~ -rw-r--r-- 1 sutan101 depfg 3.5G Jan 20 04:19 maxrootdepth_all.nc
#~ -rw-r--r-- 1 sutan101 depfg 3.5G Jan 20 04:20 meanrootdepth_all.nc
#~ -rw-r--r-- 1 sutan101 depfg 3.5G Jan 20 04:20 minrootdepth_all.nc
#~ -rw-r--r-- 1 sutan101 depfg 3.5G Jan 20 04:20 rfrac1_all.nc

#~ # initial conditions:
#~ interceptStorIni = /scratch/depfg/sutan101/pcrglobwb_wri_aqueduct_2021/pcrglobwb_aqueduct_2021_states_files_selected/version_2021-09-16/gswp3-w5e5_rerun/historical-reference/begin_from_1960/global/states/interceptStor_naturalVegetationAndRainFedCrops_1978-12-31.map
#~ snowCoverSWEIni  = /scratch/depfg/sutan101/pcrglobwb_wri_aqueduct_2021/pcrglobwb_aqueduct_2021_states_files_selected/version_2021-09-16/gswp3-w5e5_rerun/historical-reference/begin_from_1960/global/states/snowCoverSWE_naturalVegetationAndRainFedCrops_1978-12-31.map
#~ snowFreeWaterIni = /scratch/depfg/sutan101/pcrglobwb_wri_aqueduct_2021/pcrglobwb_aqueduct_2021_states_files_selected/version_2021-09-16/gswp3-w5e5_rerun/historical-reference/begin_from_1960/global/states/snowFreeWater_naturalVegetationAndRainFedCrops_1978-12-31.map
#~ topWaterLayerIni = /scratch/depfg/sutan101/pcrglobwb_wri_aqueduct_2021/pcrglobwb_aqueduct_2021_states_files_selected/version_2021-09-16/gswp3-w5e5_rerun/historical-reference/begin_from_1960/global/states/topWaterLayer_naturalVegetationAndRainFedCrops_1978-12-31.map
#~ storUppIni       = /scratch/depfg/sutan101/pcrglobwb_wri_aqueduct_2021/pcrglobwb_aqueduct_2021_states_files_selected/version_2021-09-16/gswp3-w5e5_rerun/historical-reference/begin_from_1960/global/states/storUpp_naturalVegetationAndRainFedCrops_1978-12-31.map
#~ storLowIni       = /scratch/depfg/sutan101/pcrglobwb_wri_aqueduct_2021/pcrglobwb_aqueduct_2021_states_files_selected/version_2021-09-16/gswp3-w5e5_rerun/historical-reference/begin_from_1960/global/states/storLow_naturalVegetationAndRainFedCrops_1978-12-31.map
#~ interflowIni     = /scratch/depfg/sutan101/pcrglobwb_wri_aqueduct_2021/pcrglobwb_aqueduct_2021_states_files_selected/version_2021-09-16/gswp3-w5e5_rerun/historical-reference/begin_from_1960/global/states/interflow_naturalVegetationAndRainFedCrops_1978-12-31.map

# initial conditions:
interceptStorIni = 0.0
snowCoverSWEIni  = 0.0
snowFreeWaterIni = 0.0
topWaterLayerIni = 0.0
storUppIni       = 0.0
storLowIni       = 0.0
interflowIni     = 0.0

noParameterExtrapolation = True


[irrPaddyOptions]

name = irrPaddy
debugWaterBalance = True

# snow module properties
snowModuleType      =  Simple
freezingT           =  0.0
degreeDayFactor     =  0.0055
snowWaterHoldingCap =  0.1
refreezingCoeff     =  0.05
#
landCoverMapsNC  = None
# If NC file is not provided, we have to provide the following values:
#
fracVegCover     = global_30sec/landSurface/landCover/irrigated_fractions/global_estimate_irrigation_paddy_fraction_30sec.nc
minSoilDepthFrac = 0.99
maxSoilDepthFrac = 1.01
rootFraction1    = global_30min_from_gmd_paper_input/landSurface/landCover/irrPaddy/rfrac1_paddy.nc
rootFraction2    = global_30min_from_gmd_paper_input/landSurface/landCover/irrPaddy/rfrac2_paddy.nc
maxRootDepth     = 0.5
#
# Parameters for the Arno's scheme:
arnoBeta = None
# If arnoBeta is defined, the soil water capacity distribution is based on this.
# If arnoBeta is NOT defined, maxSoilDepthFrac must be defined such that arnoBeta will be calculated based on maxSoilDepthFrac and minSoilDepthFrac.
#
# other paramater values
minTopWaterLayer = 0.05
minCropKC        = 0.2
cropDeplFactor   = 0.2
minInterceptCap  = 0.0002

cropCoefficientNC = global_30min_from_gmd_paper_input/landSurface/landCover/irrPaddy/Global_CropCoefficientKc-IrrPaddy_30min.nc


# initial conditions:
interceptStorIni = /scratch/depfg/sutan101/pcrglobwb_wri_aqueduct_2021/pcrglobwb_aqueduct_2021_states_files_selected/version_2021-09-16/gswp3-w5e5_rerun/historical-reference/begin_from_1960/global/states/interceptStor_irrPaddy_1978-12-31.map
snowCoverSWEIni  = /scratch/depfg/sutan101/pcrglobwb_wri_aqueduct_2021/pcrglobwb_aqueduct_2021_states_files_selected/version_2021-09-16/gswp3-w5e5_rerun/historical-reference/begin_from_1960/global/states/snowCoverSWE_irrPaddy_1978-12-31.map
snowFreeWaterIni = /scratch/depfg/sutan101/pcrglobwb_wri_aqueduct_2021/pcrglobwb_aqueduct_2021_states_files_selected/version_2021-09-16/gswp3-w5e5_rerun/historical-reference/begin_from_1960/global/states/snowFreeWater_irrPaddy_1978-12-31.map
topWaterLayerIni = /scratch/depfg/sutan101/pcrglobwb_wri_aqueduct_2021/pcrglobwb_aqueduct_2021_states_files_selected/version_2021-09-16/gswp3-w5e5_rerun/historical-reference/begin_from_1960/global/states/topWaterLayer_irrPaddy_1978-12-31.map
storUppIni       = /scratch/depfg/sutan101/pcrglobwb_wri_aqueduct_2021/pcrglobwb_aqueduct_2021_states_files_selected/version_2021-09-16/gswp3-w5e5_rerun/historical-reference/begin_from_1960/global/states/storUpp_irrPaddy_1978-12-31.map
storLowIni       = /scratch/depfg/sutan101/pcrglobwb_wri_aqueduct_2021/pcrglobwb_aqueduct_2021_states_files_selected/version_2021-09-16/gswp3-w5e5_rerun/historical-reference/begin_from_1960/global/states/storLow_irrPaddy_1978-12-31.map
interflowIni     = /scratch/depfg/sutan101/pcrglobwb_wri_aqueduct_2021/pcrglobwb_aqueduct_2021_states_files_selected/version_2021-09-16/gswp3-w5e5_rerun/historical-reference/begin_from_1960/global/states/interflow_irrPaddy_1978-12-31.map

noParameterExtrapolation = True


[irrNonPaddyOptions]

name = irrNonPaddy
debugWaterBalance = True

# snow module properties
snowModuleType      =  Simple
freezingT           =  0.0
degreeDayFactor     =  0.0055
snowWaterHoldingCap =  0.1
refreezingCoeff     =  0.05
#
landCoverMapsNC  = None
# If NC file is not provided, we have to provide the following values:
fracVegCover     = global_30sec/landSurface/landCover/irrigated_fractions/global_estimate_irrigation_non_paddy_fraction_30sec.nc
minSoilDepthFrac = 0.99
maxSoilDepthFrac = 1.01
rootFraction1    = global_30min_from_gmd_paper_input/landSurface/landCover/irrNonPaddy/rfrac1_nonpaddy.nc
rootFraction2    = global_30min_from_gmd_paper_input/landSurface/landCover/irrNonPaddy/rfrac2_nonpaddy.nc
maxRootDepth     = 1.0
#
# Parameters for the Arno's scheme:
arnoBeta = None
# If arnoBeta is defined, the soil water capacity distribution is based on this.
# If arnoBeta is NOT defined, maxSoilDepthFrac must be defined such that arnoBeta will be calculated based on maxSoilDepthFrac and minSoilDepthFrac.
#
# other paramater values
minTopWaterLayer = 0.0
minCropKC        = 0.2
cropDeplFactor   = 0.5
minInterceptCap  = 0.0002

cropCoefficientNC = global_30min_from_gmd_paper_input/landSurface/landCover/irrNonPaddy/Global_CropCoefficientKc-IrrNonPaddy_30min.nc

# initial conditions:

interceptStorIni = /scratch/depfg/sutan101/pcrglobwb_wri_aqueduct_2021/pcrglobwb_aqueduct_2021_states_files_selected/version_2021-09-16/gswp3-w5e5_rerun/historical-reference/begin_from_1960/global/states/interceptStor_irrNonPaddy_1978-12-31.map
snowCoverSWEIni  = /scratch/depfg/sutan101/pcrglobwb_wri_aqueduct_2021/pcrglobwb_aqueduct_2021_states_files_selected/version_2021-09-16/gswp3-w5e5_rerun/historical-reference/begin_from_1960/global/states/snowCoverSWE_irrNonPaddy_1978-12-31.map
snowFreeWaterIni = /scratch/depfg/sutan101/pcrglobwb_wri_aqueduct_2021/pcrglobwb_aqueduct_2021_states_files_selected/version_2021-09-16/gswp3-w5e5_rerun/historical-reference/begin_from_1960/global/states/snowFreeWater_irrNonPaddy_1978-12-31.map