[globalOptions]


# Set the pcrglobwb output directory in an absolute path.
outputDir    = /scratch/depfg/sutan101/test_30min/


# Set the input directory map in an absolute path . 
# - The locations of input parameter files will be relative to the following "inputDir".
inputDir     = /scratch/depfg/sutan101/data/pcrglobwb_input_arise/develop/

# Map of clone (must be provided in PCRaster maps)
# - Spatial resolution and coverage are based on this map:
cloneMap     = global_30min/cloneMaps/clone_global_30min.map


# The area/landmask of interest:
# If None, area/landmask is limited for cells with ldd value. 
landmask    = None


# netcdf attributes for output files:
institution = Department of Physical Geography, Utrecht University
title       = PCR-GLOBWB 2 output (not coupled to MODFLOW), with human factors (non-natural) - version for the WRI Aqueduct project started in 2021 - but at 30min resolution
description = by Edwin H. Sutanudjaja (contact: e.h.sutanudjaja@uu.nl), PCR-GLOBWB run with human factors (non-natural) at 30 arcmin resolution


# starting and end dates

startTime    = 1960-01-01
endTime      = 2019-12-31


# spinning up options:
maxSpinUpsInYears    = 25
minConvForSoilSto    = 0.0
minConvForGwatSto    = 0.0
minConvForChanSto    = 0.0
minConvForTotlSto    = 0.0

# option/directory for saving the spin-up directory 
spinUpOutputDir = True


#~ # with merging
#~ with_merging = True
#~ with_merging = False

cloneAreas = Global


[meteoOptions]

#~ sutan101@gpu038.cluster:/scratch/depfg/sutan101/data/isimip_forcing/isimip3a_version_2021-09-XX/copied_on_2021-09-XX/GSWP3-W5E5/merged$ ls -lah g*daily*
#~ -r--r--r-- 1 sutan101 depfg 42G Sep 18 00:16 gswp3-w5e5_obsclim_hurs_global_daily_1901_2019_version_2021-09-XX.nc
#~ -r--r--r-- 1 sutan101 depfg 42G Sep 18 00:15 gswp3-w5e5_obsclim_huss_global_daily_1901_2019_version_2021-09-XX.nc
#~ -r--r--r-- 1 sutan101 depfg 42G Sep 18 00:16 gswp3-w5e5_obsclim_pr_global_daily_1901_2019_version_2021-09-XX.nc
#~ -r--r--r-- 1 sutan101 depfg 42G Sep 18 00:15 gswp3-w5e5_obsclim_prsn_global_daily_1901_2019_version_2021-09-XX.nc
#~ -r--r--r-- 1 sutan101 depfg 42G Sep 18 00:16 gswp3-w5e5_obsclim_ps_global_daily_1901_2019_version_2021-09-XX.nc
#~ -r--r--r-- 1 sutan101 depfg 42G Sep 18 00:16 gswp3-w5e5_obsclim_rlds_global_daily_1901_2019_version_2021-09-XX.nc
#~ -r--r--r-- 1 sutan101 depfg 42G Sep 18 00:15 gswp3-w5e5_obsclim_rsds_global_daily_1901_2019_version_2021-09-XX.nc
#~ -r--r--r-- 1 sutan101 depfg 42G Sep 18 00:15 gswp3-w5e5_obsclim_sfcwind_global_daily_1901_2019_version_2021-09-XX.nc
#~ -r--r--r-- 1 sutan101 depfg 42G Sep 18 00:15 gswp3-w5e5_obsclim_tas_global_daily_1901_2019_version_2021-09-XX.nc
#~ -r--r--r-- 1 sutan101 depfg 42G Sep 18 00:15 gswp3-w5e5_obsclim_tasmax_global_daily_1901_2019_version_2021-09-XX.nc
#~ -r--r--r-- 1 sutan101 depfg 42G Sep 18 00:15 gswp3-w5e5_obsclim_tasmin_global_daily_1901_2019_version_2021-09-XX.nc


# Set the forcing temperature and precipitation files
precipitationNC    = /scratch/depfg/sutan101/data/isimip_forcing/isimip3a_version_2021-09-XX/copied_on_2021-09-XX/GSWP3-W5E5/merged/gswp3-w5e5_obsclim_pr_global_daily_1901_2019_version_2021-09-XX.nc
temperatureNC      = /scratch/depfg/sutan101/data/isimip_forcing/isimip3a_version_2021-09-XX/copied_on_2021-09-XX/GSWP3-W5E5/merged/gswp3-w5e5_obsclim_tas_global_daily_1901_2019_version_2021-09-XX.nc


# conversion constants and factors to correct forcing values (optional) so that the units are in m.day-1 and degree Celcius                                                                                                           
precipitationConstant    = 0.0
precipitationFactor      = 86.4
temperatureConstant      = -273.15
temperatureFactor        = 1.0


# Method to calculate referencePotETP (reference potential evaporation+transpiration)
referenceETPotMethod = Penman-Monteith
refETPotFileNC       = None


#~ # - test with Hamon
#~ referenceETPotMethod = Hamon
#~ refETPotFileNC       = None

#~ # - using the input file
#~ referenceETPotMethod    = Input
#~ refETPotFileNC          = /scratch/depfg/sutan101/pcrglobwb_aqueduct_2021/version_2021-06-23_w5e5v2_updated_gmd_parameters/global/merged_ref_pot_et/merged_1979-2019_with_climatology_on_1978/referencePotET_dailyTot_output_1979-2019_with_climatology_on_1978.nc


# meteo variables for calculating reference potential evaporation based on Penman-Monteith (optional)
#
# - 10 m wind speed, unit: m.s-1
wind_speed_10m              = /scratch/depfg/sutan101/data/isimip_forcing/isimip3a_version_2021-09-XX/copied_on_2021-09-XX/GSWP3-W5E5/merged/gswp3-w5e5_obsclim_sfcwind_global_daily_1901_2019_version_2021-09-XX.nc
#~ # - if wind_speed_10m is None, it will be estimated from u and v components
#~ wind_speed_10m_u_comp    = None
#~ wind_speed_10m_v_comp    = None
#
# - atmospheric pressure, unit: Pascal
atmospheric_pressure        = /scratch/depfg/sutan101/data/isimip_forcing/isimip3a_version_2021-09-XX/copied_on_2021-09-XX/GSWP3-W5E5/merged/gswp3-w5e5_obsclim_ps_global_daily_1901_2019_version_2021-09-XX.nc
#
# - shortwave (solar) radiation, unit: J.m-2.day-1 (default) or W.m-2
shortwave_radiation_input_in_w_per_m2 = True 
shortwave_radiation  = /scratch/depfg/sutan101/data/isimip_forcing/isimip3a_version_2021-09-XX/copied_on_2021-09-XX/GSWP3-W5E5/merged/gswp3-w5e5_obsclim_rsds_global_daily_1901_2019_version_2021-09-XX.nc
#
# - relative humidity, unit: 1 
relative_humidity    = /scratch/depfg/sutan101/data/isimip_forcing/isimip3a_version_2021-09-XX/copied_on_2021-09-XX/GSWP3-W5E5/merged/gswp3-w5e5_obsclim_hurs_global_daily_1901_2019_version_2021-09-XX.nc
#
# - conversion constant for the relative_humidity so that the values ranging from 0 to 1
consta_for_relative_humidity = 0.0
factor_for_relative_humidity = 0.01 

# initial conditions:
avgAnnualDiurnalDeltaTempIni = 0.0
avgAnnualPrecipitationIni    = 0.0
avgAnnualTemperatureIni      = 0.0


[landSurfaceOptions]

debugWaterBalance = True

numberOfUpperSoilLayers = 2

# soil and parameters
# - they are used for all land cover types, unless they are are defined in certain land cover type options 
#   (e.g. different/various soil types for agriculture areas)  
topographyNC            = global_30min/landSurface/topography/version_20210615_from_merit_dem/topography_parameters_30min_version_june_2021.nc


# - using soilGrids
soilPropertiesNC        = None
# - if soilPropertiesNC = None, the following soil parameters will be used
firstStorDepth          = global_30min/landSurface/soil/version_2021-05-XX/layerDepth_average_1_global_30arcmin.nc
secondStorDepth         = global_30min/landSurface/soil/version_2021-05-XX/layerDepth_average_2_global_30arcmin.nc
soilWaterStorageCap1    = global_30min/landSurface/soil/version_2021-05-XX/WHC_average_1_global_30arcmin.nc
soilWaterStorageCap2    = global_30min/landSurface/soil/version_2021-05-XX/WHC_average_2_global_30arcmin.nc
airEntryValue1          = global_30min/landSurface/soil/version_2021-05-XX/psiAir_average_1_global_30arcmin.nc
airEntryValue2          = global_30min/landSurface/soil/version_2021-05-XX/psiAir_average_2_global_30arcmin.nc
poreSizeBeta1           = global_30min/landSurface/soil/version_2021-05-XX/BCH_average_1_global_30arcmin.nc
poreSizeBeta2           = global_30min/landSurface/soil/version_2021-05-XX/BCH_average_2_global_30arcmin.nc
resVolWC1               = global_30min/landSurface/soil/version_2021-05-XX/vmcRes_average_1_global_30arcmin.nc
resVolWC2               = global_30min/landSurface/soil/version_2021-05-XX/vmcRes_average_2_global_30arcmin.nc
satVolWC1               = global_30min/landSurface/soil/version_2021-05-XX/vmcSat_average_1_global_30arcmin.nc
satVolWC2               = global_30min/landSurface/soil/version_2021-05-XX/vmcSat_average_2_global_30arcmin.nc
KSat1                   = global_30min/landSurface/soil/version_2021-05-XX/kSat_average_1_global_30arcmin.nc
KSat2                   = global_30min/landSurface/soil/version_2021-05-XX/kSat_average_2_global_30arcmin.nc


percolationImp          = global_30min/landSurface/impeded_drainage/global_30min_impeded_drainage_permafrost_dsmw_correct_lats.nc


# netcdf time series for historical expansion of irrigation areas (unit: hectares). 
# Note: The resolution of this map must be consisten with the resolution of cellArea. 
# - historical
historicalIrrigationArea    = global_30min/waterUse/irrigated_areas_30min/version_2022-03-11/irrigated_areas_historical_1960-2019_30min.nc


# domestic and industrial water demand files
# - historical
domesticWaterDemandFile     = global_30min/waterUse/waterDemand/version_2022-03-11/domestic_water_demand_historical_1960-2019_30min.nc
industryWaterDemandFile     = global_30min/waterUse/waterDemand/version_2022-03-11/industry_water_demand_historical_1960-2019_30min.nc

# livestock water demand data (unit must be in m.day-1)
livestockWaterDemandFile    = global_30min/waterUse/waterDemand/version_2022-03-11/livestock_water_demand_30min.nc


includeDomesticWaterDemand  = True
includeIndustryWaterDemand  = True
includeLivestockWaterDemand = True

includeIrrigation = True


# a pcraster map/value defining irrigation efficiency (dimensionless) - optional
irrigationEfficiency     = global_30min_from_gmd_paper_input/waterUse/irrigation/irrigation_efficiency/efficiency.nc


# desalination water supply (maximum/potential/capacity)
desalinationWater        = global_30min_from_gmd_paper_input/waterUse/desalination/desalination_water_use_version_october_2014.nc


# zone IDs (scale) at which allocations of groundwater and surface water (as well as desalinated water) are performed  
allocationSegmentsForGroundSurfaceWater = global_30min_from_gmd_paper_input/waterUse/abstraction_zones/abstraction_zones_60min_30min.nc


# pcraster maps defining the partitioning of groundwater - surface water source 
#
# - predefined surface water - groundwater partitioning for irrigation demand (e.g. based on Siebert, Global Map of Irrigation Areas version 5)
irrigationSurfaceWaterAbstractionFractionData           = global_30min_from_gmd_paper_input/waterUse/source_partitioning/surface_water_fraction_for_irrigation/AEI_SWFRAC.nc
# -- quality map
irrigationSurfaceWaterAbstractionFractionDataQuality    = global_30min_from_gmd_paper_input/waterUse/source_partitioning/surface_water_fraction_for_irrigation/AEI_QUAL.nc
#
# - threshold values defining the preference for surface water source for irrigation purpose
# -- treshold to maximize surface water irrigation use (cells with irrSurfaceWaterAbstractionFraction above this will prioritize irrigation surface water use)
treshold_to_maximize_irrigation_surface_water           = 0.50
# -- treshold to minimize fossil water withdrawal for irrigation (cells with irrSurfaceWaterAbstractionFraction below this have no fossil withdrawal for irrigation)
treshold_to_minimize_fossil_groundwater_irrigation      = 0.70
#
# - predefined surface water - groundwater partitioning for non irrigation demand (e.g. based on McDonald, 2014)
maximumNonIrrigationSurfaceWaterAbstractionFractionData = global_30min_from_gmd_paper_input/waterUse/source_partitioning/surface_water_fraction_for_non_irrigation/max_city_sw_fraction.nc


#~ sutan101@gpu038.cluster:/scratch/depfg/sutan101/data/pcrglobwb_input_arise/develop/global_30min/landSurface/landCover/version_2021-05-04$ ls -lah *
#~ -r--r--r-- 1 sutan101 depfg 1013K May  5  2021 maxf_all.map
#~ -r--r--r-- 1 sutan101 depfg 1013K May  5  2021 maxf_short.map
#~ -r--r--r-- 1 sutan101 depfg 1013K May  5  2021 maxf_tall.map
#~ -r--r--r-- 1 sutan101 depfg 1013K May  5  2021 maxrootdepth_all.map
#~ -r--r--r-- 1 sutan101 depfg 1013K May  5  2021 maxrootdepth_short.map
#~ -r--r--r-- 1 sutan101 depfg 1013K May  5  2021 maxrootdepth_tall.map
#~ -r--r--r-- 1 sutan101 depfg 1013K May  5  2021 meanrootdepth_all.map
#~ -r--r--r-- 1 sutan101 depfg 1013K May  5  2021 meanrootdepth_short.map
#~ -r--r--r-- 1 sutan101 depfg 1013K May  5  2021 meanrootdepth_tall.map
#~ -r--r--r-- 1 sutan101 depfg 1013K May  5  2021 minf_all.map
#~ -r--r--r-- 1 sutan101 depfg 1013K May  5  2021 minf_short.map
#~ -r--r--r-- 1 sutan101 depfg 1013K May  5  2021 minf_tall.map
#~ -r--r--r-- 1 sutan101 depfg 1013K May  5  2021 minrootdepth_all.map
#~ -r--r--r-- 1 sutan101 depfg 1013K May  5  2021 minrootdepth_short.map
#~ -r--r--r-- 1 sutan101 depfg 1013K May  5  2021 minrootdepth_tall.map
#~ -r--r--r-- 1 sutan101 depfg 1013K May  5  2021 rfrac1_all.map
#~ -r--r--r-- 1 sutan101 depfg 1013K May  5  2021 rfrac1_short.map
#~ -r--r--r-- 1 sutan101 depfg 1013K May  5  2021 rfrac1_tall.map
#~ -r--r--r-- 1 sutan101 depfg 1013K May  5  2021 rfrac2_all.map
#~ -r--r--r-- 1 sutan101 depfg 1013K May  5  2021 rfrac2_short.map
#~ -r--r--r-- 1 sutan101 depfg 1013K May  5  2021 rfrac2_tall.map
#~ -rw-r--r-- 1 sutan101 depfg    87 Jun 17  2021 source.txt
#~ -r--r--r-- 1 sutan101 depfg 1013K May  5  2021 vegf_short.map
#~ -r--r--r-- 1 sutan101 depfg 1013K May  5  2021 vegf_tall.map

#~ netcdf:
#~ total 4.3G
#~ drwxr-xr-x 2 sutan101 depfg   12 Jun 17  2021 .
#~ drwxr-xr-x 3 sutan101 depfg   25 Jun 17  2021 ..
#~ -r--r--r-- 1 sutan101 depfg 362M May  5  2021 composite-short-n-tall_cover_fraction.nc
#~ -r--r--r-- 1 sutan101 depfg 362M May  5  2021 composite-short-n-tall_crop_coefficient.nc
#~ -r--r--r-- 1 sutan101 depfg 362M May  5  2021 composite-short-n-tall_intercept_capacity.nc
#~ -r--r--r-- 1 sutan101 depfg 362M May  5  2021 composite-short-n-tall_leaf_area_index.nc
#~ -r--r--r-- 1 sutan101 depfg 362M May  5  2021 short_cover_fraction.nc
#~ -r--r--r-- 1 sutan101 depfg 362M May  5  2021 short_crop_coefficient.nc
#~ -r--r--r-- 1 sutan101 depfg 362M May  5  2021 short_intercept_capacity.nc
#~ -r--r--r-- 1 sutan101 depfg 362M May  5  2021 short_leaf_area_index.nc
#~ -r--r--r-- 1 sutan101 depfg 362M May  5  2021 tall_cover_fraction.nc
#~ -r--r--r-- 1 sutan101 depfg 362M May  5  2021 tall_crop_coefficient.nc
#~ -r--r--r-- 1 sutan101 depfg 362M May  5  2021 tall_intercept_capacity.nc
#~ -r--r--r-- 1 sutan101 depfg 362M May  5  2021 tall_leaf_area_index.nc


[forestOptions]

name = forest
debugWaterBalance = True

# snow module properties
snowModuleType      =  Simple
freezingT           =  0.0
degreeDayFactor     =  0.0055
snowWaterHoldingCap =  0.1
refreezingCoeff     =  0.05


landCoverMapsNC   = None
# If NC file is not provided, we have to provide the following pcraster maps:

fracVegCover      = global_30min/landSurface/landCover/version_2021-05-04/vegf_tall.map
minSoilDepthFrac  = global_30min/landSurface/landCover/version_2021-05-04/minf_tall.map
maxSoilDepthFrac  = global_30min/landSurface/landCover/version_2021-05-04/maxf_tall.map
rootFraction1     = global_30min/landSurface/landCover/version_2021-05-04/rfrac1_tall.map
rootFraction2     = global_30min/landSurface/landCover/version_2021-05-04/rfrac2_tall.map
maxRootDepth      = 1.0
# Note: The maxRootDepth is not used for non irrigated land cover type. 	
#
# Parameters for the Arno's scheme:
arnoBeta = None
# If arnoBeta is defined, the soil water capacity distribution is based on this.
# If arnoBeta is NOT defined, maxSoilDepthFrac must be defined such that arnoBeta will be calculated based on maxSoilDepthFrac and minSoilDepthFrac.


cropCoefficientNC = global_30min/landSurface/landCover/version_2021-05-04/netcdf/tall_crop_coefficient.nc
coverFractionNC   = global_30min/landSurface/landCover/version_2021-05-04/netcdf/tall_cover_fraction.nc
interceptCapNC    = global_30min/landSurface/landCover/version_2021-05-04/netcdf/tall_intercept_capacity.nc


# other paramater values
minTopWaterLayer  = 0.0
minCropKC         = 0.2
minInterceptCap   = 0.0002


noParameterExtrapolation = True


# initial conditions:
interceptStorIni = 0.0
snowCoverSWEIni  = 0.0
snowFreeWaterIni = 0.0
topWaterLayerIni = 0.0
storUppIni       = 0.0
storLowIni       = 0.0
interflowIni     = 0.0




[grasslandOptions]

name = grassland
debugWaterBalance = True

# snow module properties
snowModuleType      =  Simple
freezingT           =  0.0
degreeDayFactor     =  0.0055
snowWaterHoldingCap =  0.1
refreezingCoeff     =  0.05


landCoverMapsNC   = None
# If NC file is not provided, we have to provide the following pcraster maps:

fracVegCover      = global_30min/landSurface/landCover/version_2021-05-04/vegf_short.map
minSoilDepthFrac  = global_30min/landSurface/landCover/version_2021-05-04/minf_short.map
maxSoilDepthFrac  = global_30min/landSurface/landCover/version_2021-05-04/maxf_short.map
rootFraction1     = global_30min/landSurface/landCover/version_2021-05-04/rfrac1_short.map
rootFraction2     = global_30min/landSurface/landCover/version_2021-05-04/rfrac2_short.map
maxRootDepth      = 0.5
# Note: The maxRootDepth is not used for non irrigated land cover type. 	
#
# Parameters for the Arno's scheme:
arnoBeta = None
# If arnoBeta is defined, the soil water capacity distribution is based on this.
# If arnoBeta is NOT defined, maxSoilDepthFrac must be defined such that arnoBeta will be calculated based on maxSoilDepthFrac and minSoilDepthFrac.


cropCoefficientNC = global_30min/landSurface/landCover/version_2021-05-04/netcdf/short_crop_coefficient.nc
coverFractionNC   = global_30min/landSurface/landCover/version_2021-05-04/netcdf/short_cover_fraction.nc
interceptCapNC    = global_30min/landSurface/landCover/version_2021-05-04/netcdf/short_intercept_capacity.nc


# other paramater values
minTopWaterLayer = 0.0
minCropKC        = 0.2
minInterceptCap  = 0.0002


noParameterExtrapolation = True


# initial conditions:
interceptStorIni = 0.0
snowCoverSWEIni  = 0.0
snowFreeWaterIni = 0.0
topWaterLayerIni = 0.0
storUppIni       = 0.0
storLowIni       = 0.0
interflowIni     = 0.0


#~ sutan101@gpu038.cluster:/scratch/depfg/sutan101/data/pcrglobwb_input_arise/develop/global_30min/landSurface/irrigated_fractions/version_2022-03-11$ ls -lah
#~ total 3.1M
#~ drwxr-xr-x 2 sutan101 depfg    5 Mar 11 16:05 .
#~ drwxr-xr-x 3 sutan101 depfg   11 Mar 11 10:57 ..
#~ -rw-r--r-- 1 sutan101 depfg 1.1M Mar 11 16:05 check_sum.nc
#~ -rw-r--r-- 1 sutan101 depfg 1.1M Mar 11 16:04 fractionNonPaddy_extrapolated_30min.nc
#~ -rw-r--r-- 1 sutan101 depfg 1.1M Mar 11 16:00 fractionPaddy_extrapolated_30min.nc
#~ -rw-r--r-- 1 sutan101 depfg  308 May 18  2021 griddes_clone_global_30min.nc.txt
#~ lrwxrwxrwx 1 sutan101 depfg  122 Mar 11 10:57 version_2021-09-13_05min -> /scratch/depfg/sutan101/data/pcrglobwb_input_arise/develop/global_05min/landSurface/irrigated_fractions/version_2021-09-13


#~ sutan101@gpu038.cluster:/scratch/depfg/sutan101/data/pcrglobwb_input_arise/develop/global_30min/landSurface/landCover/irrigation_land_cover_properties_version_2022-03-22$ ls -lah *.nc
#~ -rw-r--r-- 1 sutan101 depfg 361M Mar 11 16:23 nonpaddy_cropfactor_filled_30min.nc
#~ -rw-r--r-- 1 sutan101 depfg 361M Mar 11 16:23 nonpaddy_groundcover_filled_30min.nc
#~ -rw-r--r-- 1 sutan101 depfg 361M Mar 11 16:23 nonpaddy_interceptionstorage_filled_30min.nc
#~ -rw-r--r-- 1 sutan101 depfg 1.1M Mar 11 16:29 nonpaddy_maxSoilDepth_filled_30min.nc
#~ -rw-r--r-- 1 sutan101 depfg 1.1M Mar 11 16:22 nonpaddy_maxSoilDepthFrac_filled_30min.nc
#~ -rw-r--r-- 1 sutan101 depfg 1.1M Mar 11 16:22 nonpaddy_minSoilDepthFrac_filled_30min.nc
#~ -rw-r--r-- 1 sutan101 depfg 1.1M Mar 11 16:22 nonpaddy_rootfraction_z1_filled_30min.nc
#~ -rw-r--r-- 1 sutan101 depfg 1.1M Mar 11 16:22 nonpaddy_rootfraction_z2_filled_30min.nc
#~ -rw-r--r-- 1 sutan101 depfg 361M Mar 11 16:23 paddy_cropfactor_filled_30min.nc
#~ -rw-r--r-- 1 sutan101 depfg 361M Mar 11 16:23 paddy_groundcover_filled_30min.nc


[irrPaddyOptions]

name = irrPaddy
debugWaterBalance = True

# snow module properties
snowModuleType      =  Simple
freezingT           =  0.0
degreeDayFactor     =  0.0055
snowWaterHoldingCap =  0.1
refreezingCoeff     =  0.05


landCoverMapsNC  = None

fracVegCover     = global_30min/landSurface/irrigated_fractions/version_2022-03-11/fractionPaddy_extrapolated_30min.nc
minSoilDepthFrac = 0.99
maxSoilDepthFrac = 1.01
rootFraction1    = 1.00
rootFraction2    = 0.00
maxRootDepth     = 0.5
arnoBeta = None


# other paramater values
minTopWaterLayer = 0.05
minCropKC        = 0.2
cropDeplFactor   = 0.2
minInterceptCap  = 0.0002


cropCoefficientNC = global_30min/landSurface/landCover/irrigation_land_cover_properties_version_2022-03-22/paddy_cropfactor_filled_30min.nc         
coverFractionNC   = global_30min/landSurface/landCover/irrigation_land_cover_properties_version_2022-03-22/paddy_groundcover_filled_30min.nc
interceptCapNC    = global_30min/landSurface/landCover/irrigation_land_cover_properties_version_2022-03-22/paddy_interceptionstorage_filled_30min.nc        


noParameterExtrapolation = True


# initial conditions:
interceptStorIni = 0.0
snowCoverSWEIni  = 0.0
snowFreeWaterIni = 0.0
topWaterLayerIni = 0.0
storUppIni       = 0.0
storLowIni       = 0.0
interflowIni     = 0.0




[irrNonPaddyOptions]

name = irrNonPaddy
debugWaterBalance = True

# snow module properties
snowModuleType      =  Simple
freezingT           =  0.0
degreeDayFactor     =  0.0055
snowWaterHoldingCap =  0.1
refreezingCoeff     =  0.05


landCoverMapsNC  = None

fracVegCover     = global_30min/landSurface/irrigated_fractions/version_2022-03-11/fractionNonPaddy_extrapolated_30min.nc

minSoilDepthFrac = global_30min/landSurface/landCover/irrigation_land_cover_properties_version_2022-03-22/nonpaddy_minSoilDepthFrac_filled_30min.nc
maxSoilDepthFrac = global_30min/landSurface/landCover/irrigation_land_cover_properties_version_2022-03-22/nonpaddy_maxSoilDepthFrac_filled_30min.nc
rootFraction1    = global_30min/landSurface/landCover/irrigation_land_cover_properties_version_2022-03-22/nonpaddy_rootfraction_z1_filled_30min.nc
rootFraction2    = global_30min/landSurface/landCover/irrigation_land_cover_properties_version_2022-03-22/nonpaddy_rootfraction_z2_filled_30min.nc
maxRootDepth     = global_30min/landSurface/landCover/irrigation_land_cover_properties_version_2022-03-22/nonpaddy_maxSoilDepth_filled_30min.nc
arnoBeta = None


# other paramater values
minTopWaterLayer = 0.0
minCropKC        = 0.2
cropDeplFactor   = 0.5
minInterceptCap  = 0.0002


cropCoefficientNC = global_30min/landSurface/landCover/irrigation_land_cover_properties_version_2022-03-22/nonpaddy_cropfactor_filled_30min.nc         
coverFractionNC   = global_30min/landSurface/landCover/irrigation_land_cover_properties_version_2022-03-22/nonpaddy_groundcover_filled_30min.nc
interceptCapNC    = global_30min/landSurface/landCover/irrigation_land_cover_properties_version_2022-03-22/nonpaddy_interceptionstorage_filled_30min.nc        


noParameterExtrapolation = True


# initial conditions:
interceptStorIni = 0.0
snowCoverSWEIni  = 0.0
snowFreeWaterIni = 0.0
topWaterLayerIni = 0.0
storUppIni       = 0.0
storLowIni       = 0.0
interflowIni     = 0.0


[groundwaterOptions]

debugWaterBalance = True

groundwaterPropertiesNC = None
specificYield  = global_30min/groundwater/properties/version_2021-02-XX/specific_yield_aquifer_30min.map
kSatAquifer    = global_30min/groundwater/properties/version_2021-02-XX/k_conductivity_aquifer_30min.map
recessionCoeff = global_30min/groundwater/properties/version_2021-02-XX/recession_coefficient_30min.map


#~ sutan101@gpu038.cluster:/scratch/depfg/sutan101/data/pcrglobwb_input_arise/develop/global_30min/groundwater/properties/version_2021-02-XX$ ls -lah *
#~ -rw-r--r-- 1 sutan101 depfg 1013K Jun 17  2021 globalbcat_meter_30min.map
#~ -rw-r--r-- 1 sutan101 depfg 1013K Jun 17  2021 gw_residence_time_30min_day_landmask.map
#~ -rw-r--r-- 1 sutan101 depfg 1013K Jun 17  2021 gw_residence_time_30min_day.map
#~ -rw-r--r-- 1 sutan101 depfg 1013K Jun 17  2021 k_conductivity_aquifer_30min.map
#~ -rw-r--r-- 1 sutan101 depfg  254K Jun 17  2021 landmask_global.glo
#~ -rw-r--r-- 1 sutan101 depfg  254K Jun 17  2021 landmask_ldd.glo
#~ -rw-r--r-- 1 sutan101 depfg  254K Jun 17  2021 landmask.map
#~ -rw-r--r-- 1 sutan101 depfg 1013K Jun 17  2021 recession_coefficient_30min_landmask.map
#~ -rw-r--r-- 1 sutan101 depfg 1013K Jun 17  2021 recession_coefficient_30min.map
#~ -rw-r--r-- 1 sutan101 depfg    76 Jun 17  2021 source.txt
#~ -rw-r--r-- 1 sutan101 depfg 1013K Jun 17  2021 specific_yield_aquifer_30min.map



# minimum value for groundwater recession coefficient (day-1) 
# - about 11 years
minRecessionCoeff = 0.00025


# some options for constraining groundwater abstraction
limitFossilGroundWaterAbstraction      = True
estimateOfRenewableGroundwaterCapacity = 0.0
estimateOfTotalGroundwaterThickness    = global_30min/groundwater/aquifer_thickness_estimate/version_2020-09-XX/thickness_05min_remapbil_to_30sec_filled_with_pcr_correct_lat_upscaled_to_30min_with_remapcon.nc
# minimum and maximum total groundwater thickness 
minimumTotalGroundwaterThickness       = 100.
maximumTotalGroundwaterThickness       = None

doNotExtrapolateThickness = True
noParameterExtrapolation  = True

# annual pumping capacity for each region (unit: billion cubic meter per year), should be given in a netcdf file
pumpingCapacityNC = global_30min/groundwater/groundwater_pumping_capacity/gw_pumping_capacity_1960-2100.nc


# zonal IDs (scale) at which zonal allocation of groundwater is performed  
allocationSegmentsForGroundwater = global_30min_from_gmd_paper_input/waterUse/abstraction_zones/abstraction_zones_30min_30min.nc


# initial conditions:
storGroundwaterIni                           = 0.0

storGroundwaterFossilIni                     = Maximum

avgNonFossilGroundwaterAllocationLongIni     = 0.0
avgNonFossilGroundwaterAllocationShortIni    = 0.0
avgTotalGroundwaterAbstractionIni            = 0.0
avgTotalGroundwaterAllocationLongIni         = 0.0
avgTotalGroundwaterAllocationShortIni        = 0.0
relativeGroundwaterHeadIni                   = 0.0
baseflowIni                                  = 0.0

# we need avgStorGroundwater for a non linear groundwater reservoir
avgStorGroundwaterIni                        = 0.0


#~ # option to start with the maximum value for storGroundwaterFossilIni (this will set/lead to storGroundwaterFossilIni = Maximum ; overwrite/overrule existing storGroundwaterFossilIni)
#~ useMaximumStorGroundwaterFossilIni        = True
#~ useMaximumStorGroundwaterFossilIni        = False
#~ useMaximumStorGroundwaterFossilIni        = USE_MAXIMUM_STOR_GROUNDWATER_FOSSIL_INI


# option to start with the value of storGroundwaterIni estimated from groundwater recharge (this will set/lead to storGroundwaterIni = ESTIMATE_FROM_GROUNDWATER_RECHARGE_RATE)
#~ estimateStorGroundwaterIniFromRecharge    = True
#~ estimateStorGroundwaterIniFromRecharge    = False
#~ estimateStorGroundwaterIniFromRecharge    = ESTIMATE_STOR_GROUNDWATER_INI_FROM_RECHARGE
#~ dailyGroundwaterRechargeIni               = DAILY_GROUNDWATER_RECHARGE_INI


#~ sutan101@gpu038.cluster:/scratch/depfg/sutan101/data/pcrglobwb_input_arise/develop/global_30min/routing/surface_water_bodies/version_20210615$ ls -lah *
#~ -rw-r--r-- 1 sutan101 depfg  6.0M Jun 17  2021 lakes_and_reservoirs_30min_global_2019-only_version_20210615.nc
#~ -rw-r--r-- 1 sutan101 depfg 1009M Jun 16  2021 lakes_and_reservoirs_30min_global_version_20210615.nc
#~ -rw-r--r-- 1 sutan101 depfg  254K Jun 16  2021 lddsound_30min_version_20210615.map
#~ -rw-r--r-- 1 sutan101 depfg   111 Jun 16  2021 source.txt


[routingOptions]

debugWaterBalance = True

# drainage direction map
lddMap           = global_30min/routing/surface_water_bodies/version_20210615/lddsound_30min_version_20210615.map

# cell area (unit: m2)
cellAreaMap      = global_30min/routing/channel_properties/version_20210615_from_merit_dem/maps_covered_with_zero/cellAreaMap_channel_parameters_30min_version_june_2021_global.nc


# routing method:
routingMethod = accuTravelTime

# manning coefficient
manningsN = 0.04

# Option for flood plain simulation
dynamicFloodPlain = True

# manning coefficient for floodplain
floodplainManningsN = 0.07


# channel gradient
gradient             = global_30min/routing/channel_properties/version_20210615_from_merit_dem/maps_covered_with_zero/gradient_channel_parameters_30min_version_june_2021_global_covered_with_zero.nc

# constant channel depth 
constantChannelDepth = global_30min/routing/channel_properties/version_20210615_from_merit_dem/maps_covered_with_zero/bankfull_depth_channel_parameters_30min_version_june_2021_global_covered_with_zero.nc

# constant channel width (optional)
constantChannelWidth = global_30min/routing/channel_properties/version_20210615_from_merit_dem/maps_covered_with_zero/bankfull_width_channel_parameters_30min_version_june_2021_global_covered_with_zero.nc

# minimum channel width (optional)
minimumChannelWidth  = global_30min/routing/channel_properties/version_20210615_from_merit_dem/maps_covered_with_zero/bankfull_width_channel_parameters_30min_version_june_2021_global_covered_with_zero.nc

# channel properties for flooding
bankfullCapacity     = None
# - If None, it will be estimated from (bankfull) channel depth (m) and width (m) 


# files for relative elevation (above minimum dem) 
relativeElevationFiles  = global_30min/landSurface/topography/version_20210615_from_merit_dem/maps_covered_with_zero/dzRel%04d_topography_parameters_30min_version_june_2021_global_covered_with_zero.nc
relativeElevationLevels = 0.0, 0.01, 0.05, 0.10, 0.20, 0.30, 0.40, 0.50, 0.60, 0.70, 0.80, 0.90, 1.00


# composite crop factors for WaterBodies: 
cropCoefficientWaterNC = global_30min_from_gmd_paper_input/routing/kc_surface_water/cropCoefficientForOpenWater.nc
minCropWaterKC         = 1.00

# lake and reservoir parameters
onlyNaturalWaterBodies = False
waterBodyInputNC       = global_30min/routing/surface_water_bodies/version_20210615/lakes_and_reservoirs_30min_global_version_20210615.nc


# initial conditions:
waterBodyStorageIni            = 0.0
channelStorageIni              = 0.0
readAvlChannelStorageIni       = 0.0
avgDischargeLongIni            = 0.0
avgDischargeShortIni           = 0.0
m2tDischargeLongIni            = 0.0
avgBaseflowLongIni             = 0.0
riverbedExchangeIni            = 0.0